2024_89_CemigReconfigurationCases/1_SEsCemig/UNIT306/UNIT306SegmentosMT.dss
new line.TR12175663 bus1=BMT172344713.1.2.3,bus2=BMT8770341B.1.2.3,Phases=3,Linecode=CABA08_3_3,Length=0.030673000,Units=km
new line.TR12175664 bus1=BMT8770341B.1.2.3,bus2=BMT8770344B.1.2.3,Phases=3,Linecode=CABA08_3_3,Length=0.030673000,Units=km
new line.TR12175665 bus1=BMT8770344B.1.2.3,bus2=BMT8770346B.1.2.3,Phases=3,Linecode=CABA08_3_3,Length=0.030673000,Units=km
new line.TR12175666 bus1=BMT8770346B.1.2.3,bus2=BMT172344720.1.2.3,Phases=3,Linecode=CABA08_3_3,Length=0.035111000,Units=km
new line.TR12175680 bus1=BMT172344720.1.2.3,bus2=BMT8770358B.1.2.3,Phases=3,Linecode=CABA08_3_3,Length=0.041433000,Units=km
new line.TR12175681 bus1=BMT8770358B.1.2.3,bus2=BMT8770360B.1.2.3,Phases=3,Linecode=CABA08_3_3,Length=0.047755000,Units=km
new line.TR12175682 bus1=BMT8770360B.1.2.3,bus2=BMT8770366B.1.2.3,Phases=3,Linecode=CABA08_3_3,Length=0.040800000,Units=km
new line.TR12175683 bus1=BMT8770366B.1.2.3,bus2=BMT8770368B.1.2.3,Phases=3,Linecode=CABA08_3_3,Length=0.050916000,Units=km
new line.TR12175684 bus1=BMT8770368B.1.2.3,bus2=BMT8770372B.1.2.3,Phases=3,Linecode=CABA08_3_3,Length=0.043320000,Units=km
new line.TR12175685 bus1=BMT8770372B.1.2.3,bus2=BMT8770373B.1.2.3,Phases=3,Linecode=CABA08_3_3,Length=0.026568000,Units=km
new line.TR12175686 bus1=BMT8770373B.1.2.3,bus2=BMT8770374B.1.2.3,Phases=3,Linecode=CABA08_3_3,Length=0.047755000,Units=km
new line.TR12175687 bus1=BMT8770374B.1.2.3,bus2=BMT8770375B.1.2.3,Phases=3,Linecode=CABA08_3_3,Length=0.031950000,Units=km
new line.TR12175688 bus1=BMT8770375B.1.2.3,bus2=BMT8770376B.1.2.3,Phases=3,Linecode=CABA08_3_3,Length=0.037944000,Units=km
new line.TR12175689 bus1=BMT8770376B.1.2.3,bus2=BMT8770377B.1.2.3,Phases=3,Linecode=CABA08_3_3,Length=0.034782000,Units=km
new line.TR12175690 bus1=BMT8770377B.1.2.3,bus2=BMT172344721.1.2.3,Phases=3,Linecode=CABA08_3_3,Length=0.041432000,Units=km
new line.TR12175711 bus1=BMT172344721.1.2.3,bus2=BMT8774576B.1.2.3,Phases=3,Linecode=CABA08_3_3,Length=0.040158000,Units=km
new line.TR12175712 bus1=BMT8774576B.1.2.3,bus2=BMT8774577B.1.2.3,Phases=3,Linecode=CABA08_3_3,Length=0.030673000,Units=km
new line.TR12175713 bus1=BMT8774577B.1.2.3,bus2=BMT8774578B.1.2.3,Phases=3,Linecode=CABA08_3_3,Length=0.036996000,Units=km
new line.TR12175714 bus1=BMT8774578B.1.2.3,bus2=BMT172344722.1.2.3,Phases=3,Linecode=CABA08_3_3,Length=0.041432000,Units=km
new line.TR12175715 bus1=BMT172344722.1.2.3,bus2=BMT8774583B.1.2.3,Phases=3,Linecode=CABA08_3_3,Length=0.048698000,Units=km
new line.TR12175716 bus1=BMT8774583B.1.2.3,bus2=BMT8774585B.1.2.3,Phases=3,Linecode=CABA08_3_3,Length=0.036996000,Units=km
new line.TR12175719 bus1=BMT171139992.1.2.3,bus2=BMT8716455B.1.2.3,Phases=3,Linecode=CABA06_3_3,Length=0.035437000,Units=km
new line.TR12175721 bus1=BMT8774593B.1.2.3,bus2=BMT172344723.1.2.3,Phases=3,Linecode=CABA08_3_3,Length=0.028598000,Units=km
new line.TR12175722 bus1=BMT172344723.1.2.3,bus2=BMT8774595B.1.2.3,Phases=3,Linecode=CABA08_3_3,Length=0.053595000,Units=km
new line.TR12175723 bus1=BMT8774595B.1.2.3,bus2=BMT8774596B.1.2.3,Phases=3,Linecode=CABA08_3_3,Length=0.039695000,Units=km
new line.TR12175724 bus1=BMT8774596B.1.2.3,bus2=BMT8774597B.1.2.3,Phases=3,Linecode=CABA08_3_3,Length=0.027800000,Units=km
new line.TR12175725 bus1=BMT8774597B.1.2.3,bus2=BMT8774598B.1.2.3,Phases=3,Linecode=CABA08_3_3,Length=0.036232000,Units=km
new line.TR12175726 bus1=BMT8774598B.1.2.3,bus2=BMT172344735.1.2.3,Phases=3,Linecode=CABA08_3_3,Length=0.036397000,Units=km
new line.TR12175727 bus1=BMT172344735.1.2.3,bus2=BMT172344737.1.2.3,Phases=3,Linecode=CABA08_3_3,Length=0.032012000,Units=km
new line.TR12175736 bus1=BMT172344714.1.2.3,bus2=BMT150706299.1.2.3,Phases=3,Linecode=CABA08_3_3,Length=0.033238000,Units=km
new line.TR12175737 bus1=BMT150706299.1.2.3,bus2=BMT8770408B.1.2.3,Phases=3,Linecode=CABA08_3_3,Length=0.026568000,Units=km
new line.TR12175738 bus1=BMT8770408B.1.2.3,bus2=BMT172344715.1.2.3,Phases=3,Linecode=CABA08_3_3,Length=0.023085000,Units=km
new line.TR12175739 bus1=BMT172344715.1.2.3,bus2=BMT8774617B.1.2.3,Phases=3,Linecode=CABA08_3_3,Length=0.035606000,Units=km
new line.TR12175740 bus1=BMT8774617B.1.2.3,bus2=BMT172344716.1.2.3,Phases=3,Linecode=CABA08_3_3,Length=0.031762000,Units=km
new line.TR12175741 bus1=BMT172344716.1.2.3,bus2=BMT8774619B.1.2.3,Phases=3,Linecode=CABA08_3_3,Length=0.039392000,Units=km
new line.TR12175742 bus1=BMT8774619B.1.2.3,bus2=BMT8774620B.1.2.3,Phases=3,Linecode=CABA08_3_3,Length=0.032692000,Units=km
new line.TR12175743 bus1=BMT8774620B.1.2.3,bus2=BMT8774627B.1.2.3,Phases=3,Linecode=CABA08_3_3,Length=0.044279000,Units=km
new line.TR12175744 bus1=BMT8774627B.1.2.3,bus2=BMT8774629B.1.2.3,Phases=3,Linecode=CABA08_3_3,Length=0.038636000,Units=km
new line.TR12175745 bus1=BMT8774629B.1.2.3,bus2=BMT172344718.1.2.3,Phases=3,Linecode=CABA08_3_3,Length=0.038324000,Units=km
new line.TR12175823 bus1=BMT171952980.1.2.3,bus2=BMT1935359B.1.2.3,Phases=3,Linecode=CABA06_3_3,Length=0.048037000,Units=km
new line.TR12175824 bus1=BMT172344740.1.2.3,bus2=BMT8774724B.1.2.3,Phases=3,Linecode=CABA08_3_3,Length=0.039047000,Units=km
new line.TR12175825 bus1=BMT8774724B.1.2.3,bus2=BMT8774725B.1.2.3,Phases=3,Linecode=CABA08_3_3,Length=0.039201000,Units=km
new line.TR12175826 bus1=BMT8774725B.1.2.3,bus2=BMT8774726B.1.2.3,Phases=3,Linecode=CABA08_3_3,Length=0.039821000,Units=km
new line.TR12175827 bus1=BMT8774726B.1.2.3,bus2=BMT8774727B.1.2.3,Phases=3,Linecode=CABA08_3_3,Length=0.037639000,Units=km
new line.TR12175828 bus1=BMT8774727B.1.2.3,bus2=BMT172344741.1.2.3,Phases=3,Linecode=CABA08_3_3,Length=0.040800000,Units=km
new line.TR12175829 bus1=BMT172344740.1.2.3,bus2=BMT8774730B.1.2.3,Phases=3,Linecode=CABA08_3_3,Length=0.020247000,Units=km
new line.TR12175830 bus1=BMT8774730B.1.2.3,bus2=BMT172344742.1.2.3,Phases=3,Linecode=CABA08_3_3,Length=0.032447000,Units=km
new line.TR12175831 bus1=BMT172344742.1.2.3,bus2=BMT8774732B.1.2.3,Phases=3,Linecode=CABA08_3_3,Length=0.032013000,Units=km
new line.TR12175832 bus1=BMT8774732B.1.2.3,bus2=BMT8774733B.1.2.3,Phases=3,Linecode=CABA08_3_3,Length=0.032013000,Units=km
new line.TR12175833 bus1=BMT8774733B.1.2.3,bus2=BMT8774734B.1.2.3,Phases=3,Linecode=CABA08_3_3,Length=0.045449000,Units=km
new line.TR12175834 bus1=BMT8774734B.1.2.3,bus2=BMT172344743.1.2.3,Phases=3,Linecode=CABA08_3_3,Length=0.048595000,Units=km
new line.TR12175837 bus1=BMT172344742.1.2.3,bus2=BMT8774736B.1.2.3,Phases=3,Linecode=CABA08_3_3,Length=0.032199000,Units=km
new line.TR12175838 bus1=BMT8774736B.1.2.3,bus2=BMT8774737B.1.2.3,Phases=3,Linecode=CABA08_3_3,Length=0.024411000,Units=km
new line.TR12175839 bus1=BMT8774737B.1.2.3,bus2=BMT8774738B.1.2.3,Phases=3,Linecode=CABA08_3_3,Length=0.028299000,Units=km
new line.TR12175840 bus1=BMT8774738B.1.2.3,bus2=BMT8774739B.1.2.3,Phases=3,Linecode=CABA08_3_3,Length=0.025805000,Units=km
new line.TR12175841 bus1=BMT8774739B.1.2.3,bus2=BMT8774740B.1.2.3,Phases=3,Linecode=CABA08_3_3,Length=0.039695000,Units=km
new line.TR12175842 bus1=BMT8774740B.1.2.3,bus2=BMT8774741B.1.2.3,Phases=3,Linecode=CABA08_3_3,Length=0.029203000,Units=km
new line.TR12175843 bus1=BMT8774741B.1.2.3,bus2=BMT172344744.1.2.3,Phases=3,Linecode=CABA08_3_3,Length=0.043412000,Units=km
new line.TR12175863 bus1=BMT172344722.1.2.3,bus2=BMT8774636B.1.2.3,Phases=3,Linecode=CABA08_3_3,Length=0.027854000,Units=km
new line.TR12175864 bus1=BMT8774636B.1.2.3,bus2=BMT172344724.1.2.3,Phases=3,Linecode=CABA08_3_3,Length=0.029544000,Units=km
new line.TR12175865 bus1=BMT172344724.1.2.3,bus2=BMT8774638B.1.2.3,Phases=3,Linecode=CABA08_3_3,Length=0.030362000,Units=km
new line.TR12175866 bus1=BMT8774638B.1.2.3,bus2=BMT172344725.1.2.3,Phases=3,Linecode=CABA08_3_3,Length=0.020247000,Units=km
new line.TR12175867 bus1=BMT172344725.1.2.3,bus2=BMT8774640B.1.2.3,Phases=3,Linecode=CABA08_3_3,Length=0.025630000,Units=km
new line.TR12175868 bus1=BMT8774640B.1.2.3,bus2=BMT172344727.1.2.3,Phases=3,Linecode=CABA08_3_3,Length=0.028859000,Units=km
new line.TR12175869 bus1=BMT172344727.1.2.3,bus2=BMT8774642B.1.2.3,Phases=3,Linecode=CABA08_3_3,Length=0.033238000,Units=km
new line.TR12175870 bus1=BMT8774642B.1.2.3,bus2=BMT172344729.1.2.3,Phases=3,Linecode=CABA08_3_3,Length=0.020394000,Units=km
new line.TR12175871 bus1=BMT172344729.1.2.3,bus2=BMT8774644B.1.2.3,Phases=3,Linecode=CABA08_3_3,Length=0.027292000,Units=km
new line.TR12175872 bus1=BMT8774644B.1.2.3,bus2=BMT172344731.1.2.3,Phases=3,Linecode=CABA08_3_3,Length=0.022359000,Units=km
new line.TR12175873 bus1=BMT172344731.1.2.3,bus2=BMT172344733.1.2.3,Phases=3,Linecode=CABA08_3_3,Length=0.027456000,Units=km
new line.TR12175877 bus1=BMT172344731.1.2.3,bus2=BMT8774650B.1.2.3,Phases=3,Linecode=CABA08_3_3,Length=0.029408000,Units=km
new line.TR12175878 bus1=BMT8774650B.1.2.3,bus2=BMT8774651B.1.2.3,Phases=3,Linecode=CABA08_3_3,Length=0.033835000,Units=km
new line.TR12175879 bus1=BMT8774651B.1.2.3,bus2=BMT8774652B.1.2.3,Phases=3,Linecode=CABA08_3_3,Length=0.032891000,Units=km
new line.TR12175880 bus1=BMT8774652B.1.2.3,bus2=BMT8774654B.1.2.3,Phases=3,Linecode=CABA08_3_3,Length=0.037333000,Units=km
new line.TR12175881 bus1=BMT8774654B.1.2.3,bus2=BMT8774655B.1.2.3,Phases=3,Linecode=CABA08_3_3,Length=0.044267000,Units=km
new line.TR12175882 bus1=BMT8774655B.1.2.3,bus2=BMT8774656B.1.2.3,Phases=3,Linecode=CABA08_3_3,Length=0.039556000,Units=km
new line.TR12175883 bus1=BMT8774656B.1.2.3,bus2=BMT8774657B.1.2.3,Phases=3,Linecode=CABA08_3_3,Length=0.037944000,Units=km
new line.TR12175884 bus1=BMT8774657B.1.2.3,bus2=BMT172344734.1.2.3,Phases=3,Linecode=CABA08_3_3,Length=0.038623000,Units=km
new line.TR12175915 bus1=BMT150648784.3,bus2=BMT8707533B.3,Phases=1,Linecode=CAB202_3_1,Length=0.115560000,Units=km
new line.TR12175916 bus1=BMT8707533B.3,bus2=BMT150468472.3,Phases=1,Linecode=CAB202_3_1,Length=0.118520000,Units=km
new line.TR12175917 bus1=BMT150468472.3,bus2=BMT150648785.3,Phases=1,Linecode=CAB202_3_1,Length=0.104913000,Units=km
new line.TR12175918 bus1=BMT150648785.3,bus2=BMT150648786.3,Phases=1,Linecode=CAB103_3_1,Length=0.035380000,Units=km
new line.TR12175919 bus1=BMT170579883.3,bus2=BMT170579884.3,Phases=1,Linecode=CAB103_3_1,Length=0.070448000,Units=km
new line.TR12175930 bus1=BMT172344712.1.2.3,bus2=BMT172344713.1.2.3,Phases=3,Linecode=CABA08_3_3,Length=0.035111000,Units=km
new line.TR12175931 bus1=BMT172344712.1.2.3,bus2=BMT172344714.1.2.3,Phases=3,Linecode=CABA08_3_3,Length=0.027200000,Units=km
new line.TR12175933 bus1=BMT8736250B.1.2.3,bus2=BMT5751822B.1.2.3,Phases=3,Linecode=CABA08_3_3,Length=0.049188000,Units=km
new line.TR12175934 bus1=BMT5751822B.1.2.3,bus2=BMT149245143.1.2.3,Phases=3,Linecode=CABA08_3_3,Length=0.029152000,Units=km
new line.TR12175947 bus1=BMT6458920B.1.2.3,bus2=BMT8774810B.1.2.3,Phases=3,Linecode=CAB204_3_3,Length=0.079404000,Units=km
new line.TR12175951 bus1=BMT8774585B.1.2.3,bus2=BMT8774812B.1.2.3,Phases=3,Linecode=CABA08_3_3,Length=0.030361000,Units=km
new line.TR12175952 bus1=BMT8774812B.1.2.3,bus2=BMT8774593B.1.2.3,Phases=3,Linecode=CABA08_3_3,Length=0.033997000,Units=km
new line.TR12175955 bus1=BMT161246847.1.2.3,bus2=BMT172344740.1.2.3,Phases=3,Linecode=CABA08_3_3,Length=0.041613000,Units=km
new line.TR12175956 bus1=BMT172344739.1.2.3,bus2=BMT8736278B.1.2.3,Phases=3,Linecode=CABA08_3_3,Length=0.028423000,Units=km
new line.TR12175957 bus1=BMT8736278B.1.2.3,bus2=BMT161246847.1.2.3,Phases=3,Linecode=CABA08_3_3,Length=0.006708000,Units=km
new line.TR12175972 bus1=BMT172344724.1.2.3,bus2=BMT8774821B.1.2.3,Phases=3,Linecode=CABA08_3_3,Length=0.037333000,Units=km
new line.TR12175973 bus1=BMT8774821B.1.2.3,bus2=BMT8774826B.1.2.3,Phases=3,Linecode=CABA08_3_3,Length=0.039213000,Units=km
new line.TR12175974 bus1=BMT8774826B.1.2.3,bus2=BMT8774828B.1.2.3,Phases=3,Linecode=CABA08_3_3,Length=0.042716000,Units=km
new line.TR12175975 bus1=BMT8774828B.1.2.3,bus2=BMT172344726.1.2.3,Phases=3,Linecode=CABA08_3_3,Length=0.044267000,Units=km
new line.TR12175978 bus1=BMT172344725.1.2.3,bus2=BMT8774823B.1.2.3,Phases=3,Linecode=CABA08_3_3,Length=0.037333000,Units=km
new line.TR12175979 bus1=BMT8774823B.1.2.3,bus2=BMT8774825B.1.2.3,Phases=3,Linecode=CABA08_3_3,Length=0.036996000,Units=km
new line.TR12175980 bus1=BMT8774825B.1.2.3,bus2=BMT8774829B.1.2.3,Phases=3,Linecode=CABA08_3_3,Length=0.044267000,Units=km
new line.TR12175981 bus1=BMT8774829B.1.2.3,bus2=BMT8774831B.1.2.3,Phases=3,Linecode=CABA08_3_3,Length=0.038623000,Units=km
new line.TR12175982 bus1=BMT8774831B.1.2.3,bus2=BMT172344728.1.2.3,Phases=3,Linecode=CABA08_3_3,Length=0.034782000,Units=km
new line.TR12175983 bus1=BMT172344727.1.2.3,bus2=BMT8774839B.1.2.3,Phases=3,Linecode=CABA08_3_3,Length=0.033953000,Units=km
new line.TR12175984 bus1=BMT8774839B.1.2.3,bus2=BMT8774840B.1.2.3,Phases=3,Linecode=CABA08_3_3,Length=0.029729000,Units=km
new line.TR12175985 bus1=BMT8774840B.1.2.3,bus2=BMT8774841B.1.2.3,Phases=3,Linecode=CABA08_3_3,Length=0.046482000,Units=km
new line.TR12175986 bus1=BMT8774841B.1.2.3,bus2=BMT172344730.1.2.3,Phases=3,Linecode=CABA08_3_3,Length=0.044267000,Units=km
new line.TR12175987 bus1=BMT172344729.1.2.3,bus2=BMT8774843B.1.2.3,Phases=3,Linecode=CABA08_3_3,Length=0.029118000,Units=km
new line.TR12175988 bus1=BMT8774843B.1.2.3,bus2=BMT8774844B.1.2.3,Phases=3,Linecode=CABA08_3_3,Length=0.032891000,Units=km
new line.TR12175989 bus1=BMT8774844B.1.2.3,bus2=BMT8774845B.1.2.3,Phases=3,Linecode=CABA08_3_3,Length=0.043320000,Units=km
new line.TR12175990 bus1=BMT8774845B.1.2.3,bus2=BMT172344732.1.2.3,Phases=3,Linecode=CABA08_3_3,Length=0.043007000,Units=km
new line.TR12175993 bus1=BMT165040622.1.2.3,bus2=BMT8774848B.1.2.3,Phases=3,Linecode=CABA08_3_3,Length=0.035111000,Units=km
new line.TR12175994 bus1=BMT8774848B.1.2.3,bus2=BMT8774849B.1.2.3,Phases=3,Linecode=CABA08_3_3,Length=0.048698000,Units=km
new line.TR12175995 bus1=BMT8774849B.1.2.3,bus2=BMT165040623.1.2.3,Phases=3,Linecode=CABA08_3_3,Length=0.042375000,Units=km
new line.TR12176001 bus1=BMT165040623.1.2.3,bus2=BMT8774861B.1.2.3,Phases=3,Linecode=CABA08_3_3,Length=0.045537000,Units=km
new line.TR12176002 bus1=BMT8774861B.1.2.3,bus2=BMT8774862B.1.2.3,Phases=3,Linecode=CABA08_3_3,Length=0.038272000,Units=km
new line.TR12176003 bus1=BMT8774862B.1.2.3,bus2=BMT8774864B.1.2.3,Phases=3,Linecode=CABA08_3_3,Length=0.036996000,Units=km
new line.TR12176004 bus1=BMT8774864B.1.2.3,bus2=BMT8774865B.1.2.3,Phases=3,Linecode=CABA08_3_3,Length=0.038272000,Units=km
new line.TR12176005 bus1=BMT8774865B.1.2.3,bus2=BMT8774866B.1.2.3,Phases=3,Linecode=CABA08_3_3,Length=0.035111000,Units=km
new line.TR12176006 bus1=BMT8774866B.1.2.3,bus2=BMT165040624.1.2.3,Phases=3,Linecode=CABA08_3_3,Length=0.027854000,Units=km
new line.TR12176008 bus1=BMT172344715.1.2.3,bus2=BMT8774851B.1.2.3,Phases=3,Linecode=CABA08_3_3,Length=0.038272000,Units=km
new line.TR12176009 bus1=BMT8774851B.1.2.3,bus2=BMT8774852B.1.2.3,Phases=3,Linecode=CABA08_3_3,Length=0.036052000,Units=km
new line.TR12176010 bus1=BMT8774852B.1.2.3,bus2=BMT8709892B.1.2.3,Phases=3,Linecode=CABA08_3_3,Length=0.047755000,Units=km
new line.TR12176011 bus1=BMT8709892B.1.2.3,bus2=BMT8774854B.1.2.3,Phases=3,Linecode=CABA08_3_3,Length=0.037333000,Units=km
new line.TR12176012 bus1=BMT8774854B.1.2.3,bus2=BMT172344717.1.2.3,Phases=3,Linecode=CABA08_3_3,Length=0.044594000,Units=km
new line.TR12176013 bus1=BMT172344716.1.2.3,bus2=BMT8774857B.1.2.3,Phases=3,Linecode=CABA08_3_3,Length=0.045690000,Units=km
new line.TR12176014 bus1=BMT8774857B.1.2.3,bus2=BMT8774858B.1.2.3,Phases=3,Linecode=CABA08_3_3,Length=0.041106000,Units=km
new line.TR12176015 bus1=BMT8774858B.1.2.3,bus2=BMT8774859B.1.2.3,Phases=3,Linecode=CABA08_3_3,Length=0.037333000,Units=km
new line.TR12176016 bus1=BMT8774859B.1.2.3,bus2=BMT172344719.1.2.3,Phases=3,Linecode=CABA08_3_3,Length=0.042716000,Units=km
new line.TR12176125 bus1=BMT172344723.1.2.3,bus2=BMT172344736.1.2.3,Phases=3,Linecode=CABA06_3_3,Length=0.031142000,Units=km
new line.TR12176134 bus1=BMT172344735.1.2.3,bus2=BMT172344738.1.2.3,Phases=3,Linecode=CABA06_3_3,Length=0.026625000,Units=km
new line.TR12176181 bus1=BMT161378974.1,bus2=BMT161378976.1,Phases=1,Linecode=CAB103_3_1,Length=0.073784000,Units=km
new line.TR12176530 bus1=BMT170442751.1.2.3,bus2=BMT803662B.1.2.3,Phases=3,Linecode=CABA06_3_3,Length=0.035338000,Units=km
new line.TR12176531 bus1=BMT803662B.1.2.3,bus2=BMT170442753.1.2.3,Phases=3,Linecode=CABA06_3_3,Length=0.031778000,Units=km
new line.TR12176596 bus1=BMT169210653.1.2.3,bus2=BMT169210655.1.2.3,Phases=3,Linecode=CABA06_3_3,Length=0.038075000,Units=km
new line.TR12176798 bus1=BMT171821722.1.2.3,bus2=BMT8775395B.1.2.3,Phases=3,Linecode=CABA06_3_3,Length=0.046266000,Units=km
new line.TR12176801 bus1=BMT8775395B.1.2.3,bus2=BMT171821723.1.2.3,Phases=3,Linecode=CABA06_3_3,Length=0.027292000,Units=km
new line.TR12176802 bus1=BMT171821723.1.2.3,bus2=BMT171821724.1.2.3,Phases=3,Linecode=CABA06_3_3,Length=0.032555000,Units=km
new line.TR12176810 bus1=BMT171821723.1.2.3,bus2=BMT8775398B.1.2.3,Phases=3,Linecode=CABA06_3_3,Length=0.005000000,Units=km
new line.TR12176870 bus1=BMT8775398B.1.2.3,bus2=BMT8775418B.1.2.3,Phases=3,Linecode=CABA06_3_3,Length=0.025998000,Units=km
new line.TR12176881 bus1=BMT8775418B.1.2.3,bus2=BMT171821725.1.2.3,Phases=3,Linecode=CABA06_3_3,Length=0.039808000,Units=km
new line.TR12176884 bus1=BMT171821725.1.2.3,bus2=BMT8775420B.1.2.3,Phases=3,Linecode=CABA06_3_3,Length=0.009219000,Units=km
new line.TR12176895 bus1=BMT8775420B.1.2.3,bus2=BMT8775574B.1.2.3,Phases=3,Linecode=CABA06_3_3,Length=0.025316000,Units=km
new line.TR12176901 bus1=BMT8775574B.1.2.3,bus2=BMT8775575B.1.2.3,Phases=3,Linecode=CABA06_3_3,Length=0.031572000,Units=km
new line.TR12176902 bus1=BMT8775575B.1.2.3,bus2=BMT8775577B.1.2.3,Phases=3,Linecode=CABA06_3_3,Length=0.040604000,Units=km
new line.TR12176913 bus1=BMT8775577B.1.2.3,bus2=BMT171821726.1.2.3,Phases=3,Linecode=CABA06_3_3,Length=0.035507000,Units=km
new line.TR12176925 bus1=BMT171821725.1.2.3,bus2=BMT8775421B.1.2.3,Phases=3,Linecode=CABA06_3_3,Length=0.029544000,Units=km
new line.TR12176937 bus1=BMT171821726.1.2.3,bus2=BMT8775583B.1.2.3,Phases=3,Linecode=CABA06_3_3,Length=0.042949000,Units=km
new line.TR12176938 bus1=BMT8775583B.1.2.3,bus2=BMT171821736.1.2.3,Phases=3,Linecode=CABA06_3_3,Length=0.030080000,Units=km
new line.TR12176939 bus1=BMT171821736.1.2.3,bus2=BMT8775619B.1.2.3,Phases=3,Linecode=CABA06_3_3,Length=0.022021000,Units=km
new line.TR12176940 bus1=BMT8775619B.1.2.3,bus2=BMT8775621B.1.2.3,Phases=3,Linecode=CABA06_3_3,Length=0.047849000,Units=km
new line.TR12176941 bus1=BMT171821736.1.2.3,bus2=BMT8775585B.1.2.3,Phases=3,Linecode=CABA06_3_3,Length=0.026474000,Units=km
new line.TR12176942 bus1=BMT171821736.1.2.3,bus2=BMT8775596B.1.2.3,Phases=3,Linecode=CABA06_3_3,Length=0.007280000,Units=km
new line.TR12176952 bus1=BMT8775596B.1.2.3,bus2=BMT8775597B.1.2.3,Phases=3,Linecode=CABA06_3_3,Length=0.047671000,Units=km
new line.TR12176954 bus1=BMT8775597B.1.2.3,bus2=BMT8776330B.1.2.3,Phases=3,Linecode=CABA06_3_3,Length=0.012648000,Units=km
new line.TR12176955 bus1=BMT8776330B.1.2.3,bus2=BMT8775598B.1.2.3,Phases=3,Linecode=CABA06_3_3,Length=0.030263000,Units=km
new line.TR12176956 bus1=BMT8776330B.1.2.3,bus2=BMT8775595B.1.2.3,Phases=3,Linecode=CABA06_3_3,Length=0.027071000,Units=km
new line.TR12176957 bus1=BMT8776330B.1.2.3,bus2=BMT8775600B.1.2.3,Phases=3,Linecode=CABA06_3_3,Length=0.013600000,Units=km
new line.TR12176959 bus1=BMT8775600B.1.2.3,bus2=BMT171821738.1.2.3,Phases=3,Linecode=CABA06_3_3,Length=0.051966000,Units=km
new line.TR12176973 bus1=BMT8775621B.1.2.3,bus2=BMT171821737.1.2.3,Phases=3,Linecode=CABA06_3_3,Length=0.025493000,Units=km
new line.TR12176977 bus1=BMT171821737.1.2.3,bus2=BMT8775623B.1.2.3,Phases=3,Linecode=CABA06_3_3,Length=0.036671000,Units=km
new line.TR12176978 bus1=BMT8775623B.1.2.3,bus2=BMT8775625B.1.2.3,Phases=3,Linecode=CABA06_3_3,Length=0.040788000,Units=km
new line.TR12176979 bus1=BMT8775625B.1.2.3,bus2=BMT8775627B.1.2.3,Phases=3,Linecode=CABA06_3_3,Length=0.045701000,Units=km
new line.TR12176982 bus1=BMT8775627B.1.2.3,bus2=BMT8775628B.1.2.3,Phases=3,Linecode=CABA06_3_3,Length=0.047849000,Units=km
new line.TR12176983 bus1=BMT8775628B.1.2.3,bus2=BMT8775613B.1.2.3,Phases=3,Linecode=CABA06_3_3,Length=0.028440000,Units=km
new line.TR12177008 bus1=BMT8775613B.1.2.3,bus2=BMT171821739.1.2.3,Phases=3,Linecode=CABA06_3_3,Length=0.017116000,Units=km
new line.TR12177046 bus1=BMT171821737.1.2.3,bus2=BMT171821740.1.2.3,Phases=3,Linecode=CABA06_3_3,Length=0.034231000,Units=km
new line.TR12177069 bus1=BMT171821740.1.2.3,bus2=BMT8775646B.1.2.3,Phases=3,Linecode=CABA06_3_3,Length=0.049815000,Units=km
new line.TR12177071 bus1=BMT8775646B.1.2.3,bus2=BMT8775648B.1.2.3,Phases=3,Linecode=CABA06_3_3,Length=0.027656000,Units=km
new line.TR12177072 bus1=BMT8775421B.1.2.3,bus2=BMT8775422B.1.2.3,Phases=3,Linecode=CABA06_3_3,Length=0.037158000,Units=km
new line.TR12177080 bus1=BMT8775422B.1.2.3,bus2=BMT171821727.1.2.3,Phases=3,Linecode=CABA06_3_3,Length=0.022559000,Units=km
new line.TR12177081 bus1=BMT171821727.1.2.3,bus2=BMT171821728.1.2.3,Phases=3,Linecode=CABA06_3_3,Length=0.028598000,Units=km
new line.TR12177101 bus1=BMT171821728.1.2.3,bus2=BMT8775473B.1.2.3,Phases=3,Linecode=CABA06_3_3,Length=0.033538000,Units=km
new line.TR12177102 bus1=BMT8775473B.1.2.3,bus2=BMT8775474B.1.2.3,Phases=3,Linecode=CABA06_3_3,Length=0.047006000,Units=km
new line.TR12177105 bus1=BMT171821727.1.2.3,bus2=BMT8775424B.1.2.3,Phases=3,Linecode=CABA06_3_3,Length=0.009219000,Units=km
new line.TR12177106 bus1=BMT171821727.1.2.3,bus2=BMT8775426B.1.2.3,Phases=3,Linecode=CABA06_3_3,Length=0.017028000,Units=km
new line.TR12177112 bus1=BMT8775426B.1.2.3,bus2=BMT8775429B.1.2.3,Phases=3,Linecode=CABA06_3_3,Length=0.029066000,Units=km
new line.TR12177113 bus1=BMT8775429B.1.2.3,bus2=BMT8775432B.1.2.3,Phases=3,Linecode=CABA06_3_3,Length=0.030868000,Units=km
new line.TR12177120 bus1=BMT8775432B.1.2.3,bus2=BMT8775434B.1.2.3,Phases=3,Linecode=CABA06_3_3,Length=0.028633000,Units=km
new line.TR12177122 bus1=BMT8775434B.1.2.3,bus2=BMT8775436B.1.2.3,Phases=3,Linecode=CABA06_3_3,Length=0.005385000,Units=km
new line.TR12177124 bus1=BMT8775436B.1.2.3,bus2=BMT8775439B.1.2.3,Phases=3,Linecode=CABA06_3_3,Length=0.036766000,Units=km
new line.TR12177128 bus1=BMT8775439B.1.2.3,bus2=BMT8775441B.1.2.3,Phases=3,Linecode=CABA06_3_3,Length=0.038075000,Units=km
new line.TR12177130 bus1=BMT8775441B.1.2.3,bus2=BMT171821729.1.2.3,Phases=3,Linecode=CABA06_3_3,Length=0.037158000,Units=km
new line.TR12177137 bus1=BMT800113B.1.2.3,bus2=BMT170130676.1.2.3,Phases=3,Linecode=CAB107_3_3,Length=0.036218000,Units=km
new line.TR12177138 bus1=BMT170130676.1.2.3,bus2=BMT126571953.1.2.3,Phases=3,Linecode=CAB107_3_3,Length=0.036342000,Units=km
new line.TR12177177 bus1=BMT8775648B.1.2.3,bus2=BMT171821741.1.2.3,Phases=3,Linecode=CABA06_3_3,Length=0.034710000,Units=km
new line.TR12177178 bus1=BMT171821741.1.2.3,bus2=BMT8775651B.1.2.3,Phases=3,Linecode=CABA06_3_3,Length=0.012165000,Units=km
new line.TR12177181 bus1=BMT171821741.1.2.3,bus2=BMT171821743.1.2.3,Phases=3,Linecode=CABA06_3_3,Length=0.028458000,Units=km
new line.TR12177191 bus1=BMT171821741.1.2.3,bus2=BMT8775547B.1.2.3,Phases=3,Linecode=CABA06_3_3,Length=0.030997000,Units=km
new line.TR12177196 bus1=BMT8775651B.1.2.3,bus2=BMT8775654B.1.2.3,Phases=3,Linecode=CABA06_3_3,Length=0.030591000,Units=km
new line.TR12177199 bus1=BMT8775654B.1.2.3,bus2=BMT8776475B.1.2.3,Phases=3,Linecode=CABA06_3_3,Length=0.025630000,Units=km
new line.TR12177200 bus1=BMT8776475B.1.2.3,bus2=BMT8775657B.1.2.3,Phases=3,Linecode=CABA06_3_3,Length=0.016123000,Units=km
new line.TR12177201 bus1=BMT8776475B.1.2.3,bus2=BMT8775533B.1.2.3,Phases=3,Linecode=CABA06_3_3,Length=0.026923000,Units=km
new line.TR12177206 bus1=BMT8776475B.1.2.3,bus2=BMT8775742B.1.2.3,Phases=3,Linecode=CABA06_3_3,Length=0.015032000,Units=km
new line.TR12177207 bus1=BMT8775742B.1.2.3,bus2=BMT8775768B.1.2.3,Phases=3,Linecode=CABA06_3_3,Length=0.034522000,Units=km
new line.TR12177209 bus1=BMT8775768B.1.2.3,bus2=BMT8775770B.1.2.3,Phases=3,Linecode=CABA06_3_3,Length=0.035690000,Units=km
new line.TR12177210 bus1=BMT8775770B.1.2.3,bus2=BMT171821742.1.2.3,Phases=3,Linecode=CABA06_3_3,Length=0.036671000,Units=km
new line.TR12177249 bus1=BMT8775474B.1.2.3,bus2=BMT8775477B.1.2.3,Phases=3,Linecode=CABA06_3_3,Length=0.029066000,Units=km
new line.TR12177250 bus1=BMT8775477B.1.2.3,bus2=BMT8775479B.1.2.3,Phases=3,Linecode=CABA06_3_3,Length=0.037158000,Units=km
new line.TR12177251 bus1=BMT8775479B.1.2.3,bus2=BMT171821730.1.2.3,Phases=3,Linecode=CABA06_3_3,Length=0.039353000,Units=km
new line.TR12177268 bus1=BMT171821730.1.2.3,bus2=BMT8775490B.1.2.3,Phases=3,Linecode=CABA06_3_3,Length=0.038480000,Units=km
new line.TR12177271 bus1=BMT8775490B.1.2.3,bus2=BMT171821731.1.2.3,Phases=3,Linecode=CABA06_3_3,Length=0.021188000,Units=km
...
