2024_89_CemigReconfigurationCases/1_SEsCemig/UNIT306/UNIT306ChavesMT.dss
new line.CTR105272 bus1=BMT126542693.1.2.3,bus2=BMT126542700.1.2.3,Phases=3,LineCode=tieSwitch,Length=0.001,Units=km,switch=T !numEQ 101302
new line.CTR145543 bus1=BMT126570700.1.2.3,bus2=BMT164377539.1.2.3,Phases=3,LineCode=tieSwitch,Length=0.001,Units=km,switch=T !numEQ 53596
new line.CTR145571 bus1=BMT126589236.1.2.3,bus2=BMT126589572.1.2.3,Phases=3,LineCode=tieSwitch,Length=0.001,Units=km,switch=T !numEQ 53600
new line.CTR145732 bus1=BMT126554117.3,bus2=BMT126560501.3,Phases=1,LineCode=tieSwitch1,Length=0.001,Units=km,switch=T !numEQ 53657
new line.CTR145739 bus1=BMT126556070.3,bus2=BMT126557057.3,Phases=1,LineCode=tieSwitch1,Length=0.001,Units=km,switch=T !numEQ 53372
new line.CTR145760 bus1=BMT126571953.1.2.3,bus2=BMT170990339.1.2.3,Phases=3,LineCode=tieSwitch,Length=0.001,Units=km,switch=T !numEQ 53376
new line.CTR145774 bus1=BMT150933537.1.2.3,bus2=BMT149173822.1.2.3,Phases=3,LineCode=tieSwitch,Length=0.001,Units=km,switch=T !numEQ 53378
open line.CTR145774 term=1
new line.CTR145809 bus1=BMT126556028.1.2.3,bus2=BMT126556035.1.2.3,Phases=3,LineCode=tieSwitch,Length=0.001,Units=km,switch=T !numEQ 53399
open line.CTR145809 term=1
new line.CTR145914 bus1=BMT126589012.1.2.3,bus2=BMT126589089.1.2.3,Phases=3,LineCode=tieSwitch,Length=0.001,Units=km,switch=T !numEQ 53415
new line.CTR145984 bus1=BMT126556882.1,bus2=BMT126556945.1,Phases=1,LineCode=tieSwitch1,Length=0.001,Units=km,switch=T !numEQ 53428
new line.CTR146005 bus1=BMT126592099.2,bus2=BMT126597811.2,Phases=1,LineCode=tieSwitch1,Length=0.001,Units=km,switch=T !numEQ 53431
new line.CTR146047 bus1=BMT126593905.1,bus2=BMT126593940.1,Phases=1,LineCode=tieSwitch1,Length=0.001,Units=km,switch=T !numEQ 53441
new line.CTR146110 bus1=BMT164500597.1.2.3,bus2=BMT126569790.1.2.3,Phases=3,LineCode=tieSwitch,Length=0.001,Units=km,switch=T !numEQ 233164
open line.CTR146110 term=1
new line.CTR146180 bus1=BMT126555629.2,bus2=BMT167100088.2,Phases=1,LineCode=tieSwitch1,Length=0.001,Units=km,switch=T !numEQ 53465
new line.CTR146187 bus1=BMT126569783.1.2.3,bus2=BMT126569923.1.2.3,Phases=3,LineCode=tieSwitch,Length=0.001,Units=km,switch=T !numEQ 53466
new line.CTR146194 bus1=BMT126567858.1.2.3,bus2=BMT155274279.1.2.3,Phases=3,LineCode=tieSwitch,Length=0.001,Units=km,switch=T !numEQ 53467
open line.CTR146194 term=1
new line.CTR146201 bus1=BMT126591938.1.2.3,bus2=BMT126600912.1.2.3,Phases=3,LineCode=tieSwitch,Length=0.001,Units=km,switch=T !numEQ 53468
new line.CTR146208 bus1=BMT126556056.1,bus2=BMT126558310.1,Phases=1,LineCode=tieSwitch1,Length=0.001,Units=km,switch=T !numEQ 53469
new line.CTR146215 bus1=BMT126550715.1.2.3,bus2=BMT126550764.1.2.3,Phases=3,LineCode=tieSwitch,Length=0.001,Units=km,switch=T !numEQ 53470
new line.CTR146229 bus1=BMT126569545.1.2.3,bus2=BMT151472205.1.2.3,Phases=3,LineCode=tieSwitch,Length=0.001,Units=km,switch=T !numEQ 53473
new line.CTR146264 bus1=BMT126598217.1,bus2=BMT126599050.1,Phases=1,LineCode=tieSwitch1,Length=0.001,Units=km,switch=T !numEQ 53476
new line.CTR146278 bus1=BMT126567151.1.2.3,bus2=BMT126567158.1.2.3,Phases=3,LineCode=tieSwitch,Length=0.001,Units=km,switch=T !numEQ 53478
new line.CTR146355 bus1=BMT126571029.1.2.3,bus2=BMT172937757.1.2.3,Phases=3,LineCode=tieSwitch,Length=0.001,Units=km,switch=T !numEQ 53501
new line.CTR146362 bus1=BMT126570861.1.2.3,bus2=BMT167801968.1.2.3,Phases=3,LineCode=tieSwitch,Length=0.001,Units=km,switch=T !numEQ 53504
new line.CTR146390 bus1=BMT126591161.1.2.3,bus2=BMT160426011.1.2.3,Phases=3,LineCode=tieSwitch,Length=0.001,Units=km,switch=T !numEQ 126511
new line.CTR146404 bus1=BMT126565737.1.2.3,bus2=BMT126565884.1.2.3,Phases=3,LineCode=tieSwitch,Length=0.001,Units=km,switch=T !numEQ 53475
new line.CTR146446 bus1=BMT126559073.3,bus2=BMT152875354.3,Phases=1,LineCode=tieSwitch1,Length=0.001,Units=km,switch=T !numEQ 53253
new line.CTR146481 bus1=BMT126556525.2,bus2=BMT126556532.2,Phases=1,LineCode=tieSwitch1,Length=0.001,Units=km,switch=T !numEQ 53260
new line.CTR146502 bus1=BMT126590167.3,bus2=BMT167196878.3,Phases=1,LineCode=tieSwitch1,Length=0.001,Units=km,switch=T !numEQ 53263
new line.CTR146537 bus1=BMT126566563.1.2.3,bus2=BMT135446000.1.2.3,Phases=3,LineCode=tieSwitch,Length=0.001,Units=km,switch=T !numEQ 53281
new line.CTR146572 bus1=BMT126553221.1.2.3,bus2=BMT171139776.1.2.3,Phases=3,LineCode=tieSwitch,Length=0.001,Units=km,switch=T !numEQ 317439
new line.CTR146586 bus1=BMT126566780.1.2.3,bus2=BMT163174473.1.2.3,Phases=3,LineCode=tieSwitch,Length=0.001,Units=km,switch=T !numEQ 53286
new line.CTR146607 bus1=BMT126572492.1.2.3,bus2=BMT167096820.1.2.3,Phases=3,LineCode=tieSwitch,Length=0.001,Units=km,switch=T !numEQ 53291
new line.CTR146628 bus1=BMT126581571.2,bus2=BMT126582089.2,Phases=1,LineCode=tieSwitch1,Length=0.001,Units=km,switch=T !numEQ 53296
new line.CTR146635 bus1=BMT126547635.3,bus2=BMT126547950.3,Phases=1,LineCode=tieSwitch1,Length=0.001,Units=km,switch=T !numEQ 53297
new line.CTR146663 bus1=BMT126593072.2,bus2=BMT126593107.2,Phases=1,LineCode=tieSwitch1,Length=0.001,Units=km,switch=T !numEQ 53307
new line.CTR146670 bus1=BMT126549952.3,bus2=BMT126549980.3,Phases=1,LineCode=tieSwitch1,Length=0.001,Units=km,switch=T !numEQ 53312
new line.CTR146733 bus1=BMT126570497.1.2.3,bus2=BMT126570637.1.2.3,Phases=3,LineCode=tieSwitch,Length=0.001,Units=km,switch=T !numEQ 53317
new line.CTR146761 bus1=BMT126586709.3,bus2=BMT126586744.3,Phases=1,LineCode=tieSwitch1,Length=0.001,Units=km,switch=T !numEQ 53321
new line.CTR146803 bus1=BMT126555958.3,bus2=BMT169973031.3,Phases=1,LineCode=tieSwitch1,Length=0.001,Units=km,switch=T !numEQ 53330
new line.CTR146852 bus1=BMT126566535.1.2.3,bus2=BMT161314973.1.2.3,Phases=3,LineCode=tieSwitch,Length=0.001,Units=km,switch=T !numEQ 53337
new line.CTR146880 bus1=BMT126561628.3,bus2=BMT126562727.3,Phases=1,LineCode=tieSwitch1,Length=0.001,Units=km,switch=T !numEQ 53341
new line.CTR146887 bus1=BMT126566577.1.2.3,bus2=BMT171314259.1.2.3,Phases=3,LineCode=tieSwitch,Length=0.001,Units=km,switch=T !numEQ 53342
new line.CTR146894 bus1=BMT126571890.1.2.3,bus2=BMT170130669.1.2.3,Phases=3,LineCode=tieSwitch,Length=0.001,Units=km,switch=T !numEQ 53343
new line.CTR146901 bus1=BMT126568992.1.2.3,bus2=BMT171831230.1.2.3,Phases=3,LineCode=tieSwitch,Length=0.001,Units=km,switch=T !numEQ 53344
new line.CTR146908 bus1=BMT126566262.1.2.3,bus2=BMT168748550.1.2.3,Phases=3,LineCode=tieSwitch,Length=0.001,Units=km,switch=T !numEQ 263298
new line.CTR146915 bus1=BMT168748552.1.2.3,bus2=BMT3711385.1.2.3,Phases=3,LineCode=tieSwitch,Length=0.001,Units=km,switch=T !numEQ 53346
open line.CTR146915 term=1
new line.CTR146922 bus1=BMT126592673.3,bus2=BMT126592687.3,Phases=1,LineCode=tieSwitch1,Length=0.001,Units=km,switch=T !numEQ 53347
new line.CTR143716 bus1=BMT126567291.1.2.3,bus2=BMT126567326.1.2.3,Phases=3,LineCode=tieSwitch,Length=0.001,Units=km,switch=T !numEQ 53883
new line.CTR143723 bus1=BMT126567704.1.2.3,bus2=BMT126567767.1.2.3,Phases=3,LineCode=tieSwitch,Length=0.001,Units=km,switch=T !numEQ 53884
new line.CTR143730 bus1=BMT126542707.1.2.3,bus2=BMT126542714.1.2.3,Phases=3,LineCode=tieSwitch,Length=0.001,Units=km,switch=T !numEQ 53742
new line.CTR143737 bus1=BMT126555013.1.2.3,bus2=BMT161221845.1.2.3,Phases=3,LineCode=tieSwitch,Length=0.001,Units=km,switch=T !numEQ 53743
new line.CTR143751 bus1=BMT126559297.1,bus2=BMT126559619.1,Phases=1,LineCode=tieSwitch1,Length=0.001,Units=km,switch=T !numEQ 53745
new line.CTR143758 bus1=BMT126554404.2,bus2=BMT126560473.2,Phases=1,LineCode=tieSwitch1,Length=0.001,Units=km,switch=T !numEQ 53746
new line.CTR143765 bus1=BMT126554131.2,bus2=BMT126554145.2,Phases=1,LineCode=tieSwitch1,Length=0.001,Units=km,switch=T !numEQ 53747
new line.CTR143772 bus1=BMT126560557.3,bus2=BMT126560592.3,Phases=1,LineCode=tieSwitch1,Length=0.001,Units=km,switch=T !numEQ 53748
new line.CTR143863 bus1=BMT126570525.1.2.3,bus2=BMT138437758.1.2.3,Phases=3,LineCode=tieSwitch,Length=0.001,Units=km,switch=T !numEQ 53772
new line.CTR143919 bus1=BMT126542903.1.2.3,bus2=BMT167023338.1.2.3,Phases=3,LineCode=tieSwitch,Length=0.001,Units=km,switch=T !numEQ 53790
new line.CTR143996 bus1=BMT126568614.1.2.3,bus2=BMT2094812.1.2.3,Phases=3,LineCode=tieSwitch,Length=0.001,Units=km,switch=T !numEQ 53805
open line.CTR143996 term=1
new line.CTR144010 bus1=BMT126569398.1.2.3,bus2=BMT163325974.1.2.3,Phases=3,LineCode=tieSwitch,Length=0.001,Units=km,switch=T !numEQ 53807
new line.CTR144052 bus1=BMT126596782.1,bus2=BMT150594512.1,Phases=1,LineCode=tieSwitch1,Length=0.001,Units=km,switch=T !numEQ 53814
new line.CTR144059 bus1=BMT126594458.1,bus2=BMT126597762.1,Phases=1,LineCode=tieSwitch1,Length=0.001,Units=km,switch=T !numEQ 53815
new line.CTR144199 bus1=BMT140112606.1.2.3,bus2=BMT2887268.1.2.3,Phases=3,LineCode=tieSwitch,Length=0.001,Units=km,switch=T !numEQ 53838
new line.CTR144262 bus1=BMT126587633.3,bus2=BMT126588718.3,Phases=1,LineCode=tieSwitch1,Length=0.001,Units=km,switch=T !numEQ 53846
new line.CTR144276 bus1=BMT126551639.1.2.3,bus2=BMT126551646.1.2.3,Phases=3,LineCode=tieSwitch,Length=0.001,Units=km,switch=T !numEQ 53848
new line.CTR144283 bus1=BMT126543554.1,bus2=BMT126543764.1,Phases=1,LineCode=tieSwitch1,Length=0.001,Units=km,switch=T !numEQ 53849
new line.CTR144353 bus1=BMT126554845.2,bus2=BMT161146248.2,Phases=1,LineCode=tieSwitch1,Length=0.001,Units=km,switch=T !numEQ 53658
new line.CTR144360 bus1=BMT126554929.1,bus2=BMT126555027.1,Phases=1,LineCode=tieSwitch1,Length=0.001,Units=km,switch=T !numEQ 53659
new line.CTR144570 bus1=BMT126593247.2,bus2=BMT126593303.2,Phases=1,LineCode=tieSwitch1,Length=0.001,Units=km,switch=T !numEQ 53671
new line.CTR144864 bus1=BMT126542966.1.2.3,bus2=BMT126542980.1.2.3,Phases=3,LineCode=tieSwitch,Length=0.001,Units=km,switch=T !numEQ 53718
new line.CTR144892 bus1=BMT141271057.1,bus2=BMT141271078.1,Phases=1,LineCode=tieSwitch1,Length=0.001,Units=km,switch=T !numEQ 53723
new line.CTR144899 bus1=BMT126555048.1,bus2=BMT126555286.1,Phases=1,LineCode=tieSwitch1,Length=0.001,Units=km,switch=T !numEQ 53724
new line.CTR144906 bus1=BMT126553928.1,bus2=BMT126553942.1,Phases=1,LineCode=tieSwitch1,Length=0.001,Units=km,switch=T !numEQ 53725
new line.CTR144913 bus1=BMT126554047.1,bus2=BMT126560732.1,Phases=1,LineCode=tieSwitch1,Length=0.001,Units=km,switch=T !numEQ 53726
new line.CTR144927 bus1=BMT126554096.1,bus2=BMT126560620.1,Phases=1,LineCode=tieSwitch1,Length=0.001,Units=km,switch=T !numEQ 53730
new line.CTR144941 bus1=BMT126542672.1.2.3,bus2=BMT165375167.1.2.3,Phases=3,LineCode=tieSwitch,Length=0.001,Units=km,switch=T !numEQ 53733
new line.CTR144976 bus1=BMT126543001.1.2.3,bus2=BMT126543008.1.2.3,Phases=3,LineCode=tieSwitch,Length=0.001,Units=km,switch=T !numEQ 53739
new line.CTR144983 bus1=BMT126542812.1.2.3,bus2=BMT126542826.1.2.3,Phases=3,LineCode=tieSwitch,Length=0.001,Units=km,switch=T !numEQ 53741
new line.CTR145067 bus1=BMT126572149.1.2.3,bus2=BMT126588739.1.2.3,Phases=3,LineCode=tieSwitch,Length=0.001,Units=km,switch=T !numEQ 53516
new line.CTR145081 bus1=BMT126585463.1.2.3,bus2=BMT126587402.1.2.3,Phases=3,LineCode=tieSwitch,Length=0.001,Units=km,switch=T !numEQ 53519
new line.CTR145088 bus1=BMT126586723.1.2.3,bus2=BMT126586730.1.2.3,Phases=3,LineCode=tieSwitch,Length=0.001,Units=km,switch=T !numEQ 53520
new line.CTR145277 bus1=BMT126585701.1,bus2=BMT126585820.1,Phases=1,LineCode=tieSwitch1,Length=0.001,Units=km,switch=T !numEQ 53551
new line.CTR145284 bus1=BMT126585757.2,bus2=BMT169780237.2,Phases=1,LineCode=tieSwitch1,Length=0.001,Units=km,switch=T !numEQ 53552
new line.CTR145340 bus1=BMT126582572.3,bus2=BMT128769337.3,Phases=1,LineCode=tieSwitch1,Length=0.001,Units=km,switch=T !numEQ 53559
new line.CTR145347 bus1=BMT126545612.3,bus2=BMT126550281.3,Phases=1,LineCode=tieSwitch1,Length=0.001,Units=km,switch=T !numEQ 53560
new line.CTR145354 bus1=BMT163755792.1.2.3,bus2=BMT126552444.1.2.3,Phases=3,LineCode=tieSwitch,Length=0.001,Units=km,switch=T !numEQ 53562
open line.CTR145354 term=1
new line.CTR145389 bus1=BMT126563784.1,bus2=BMT165293484.1,Phases=1,LineCode=tieSwitch1,Length=0.001,Units=km,switch=T !numEQ 53572
new line.CTR145417 bus1=BMT126551758.1.2.3,bus2=BMT126551765.1.2.3,Phases=3,LineCode=tieSwitch,Length=0.001,Units=km,switch=T !numEQ 53576
new line.CTR157555 bus1=BMT160154171.1.2.3,bus2=BMT126546053.1.2.3,Phases=3,LineCode=tieSwitch,Length=0.001,Units=km,switch=T !numEQ 51005
new line.CTR157562 bus1=BMT126548146.1.2.3,bus2=BMT128827808.1.2.3,Phases=3,LineCode=tieSwitch,Length=0.001,Units=km,switch=T !numEQ 51006
new line.CTR157576 bus1=BMT126545955.3,bus2=BMT126549903.3,Phases=1,LineCode=tieSwitch1,Length=0.001,Units=km,switch=T !numEQ 51008
new line.CTR157583 bus1=BMT126544730.1,bus2=BMT126544737.1,Phases=1,LineCode=tieSwitch1,Length=0.001,Units=km,switch=T !numEQ 51009
open line.CTR157583 term=1
new line.CTR157590 bus1=BMT173224344.1.2.3,bus2=BMT173224462.1.2.3,Phases=3,LineCode=tieSwitch,Length=0.001,Units=km,switch=T !numEQ 51010
new line.CTR157597 bus1=BMT126547964.2,bus2=BMT152276674.2,Phases=1,LineCode=tieSwitch1,Length=0.001,Units=km,switch=T !numEQ 51012
new line.CTR157604 bus1=BMT126544625.1,bus2=BMT170264752.1,Phases=1,LineCode=tieSwitch1,Length=0.001,Units=km,switch=T !numEQ 51015
new line.CTR157618 bus1=BMT126546081.2,bus2=BMT126547502.2,Phases=1,LineCode=tieSwitch1,Length=0.001,Units=km,switch=T !numEQ 51018
new line.CTR100281 bus1=BMT171866908.1.2.3,bus2=BMT172857918.1.2.3,Phases=3,LineCode=tieSwitch,Length=0.001,Units=km,switch=T !numEQ 105085
new line.CTR100288 bus1=BMT126572387.1.2.3,bus2=BMT126585323.1.2.3,Phases=3,LineCode=tieSwitch,Length=0.001,Units=km,switch=T !numEQ 105086
new line.CTR100295 bus1=BMT126582943.1,bus2=BMT126584791.1,Phases=1,LineCode=tieSwitch1,Length=0.001,Units=km,switch=T !numEQ 105087
new line.CTR100302 bus1=BMT126583251.3,bus2=BMT126583811.3,Phases=1,LineCode=tieSwitch1,Length=0.001,Units=km,switch=T !numEQ 105088
new line.CTR100309 bus1=BMT126572534.3,bus2=BMT126582845.3,Phases=1,LineCode=tieSwitch1,Length=0.001,Units=km,switch=T !numEQ 105089
new line.CTR100316 bus1=BMT126564246.1,bus2=BMT126564715.1,Phases=1,LineCode=tieSwitch1,Length=0.001,Units=km,switch=T !numEQ 105090
new line.CTR100323 bus1=BMT126590139.3,bus2=BMT126590426.3,Phases=1,LineCode=tieSwitch1,Length=0.001,Units=km,switch=T !numEQ 105091
new line.CTR100575 bus1=BMT126594507.1,bus2=BMT126597517.1,Phases=1,LineCode=tieSwitch1,Length=0.001,Units=km,switch=T !numEQ 105980
new line.CTR100582 bus1=BMT126592176.2,bus2=BMT126594395.2,Phases=1,LineCode=tieSwitch1,Length=0.001,Units=km,switch=T !numEQ 105981
new line.CTR100589 bus1=BMT126592232.1,bus2=BMT126593989.1,Phases=1,LineCode=tieSwitch1,Length=0.001,Units=km,switch=T !numEQ 105982
new line.CTR100596 bus1=BMT126594164.1,bus2=BMT126594283.1,Phases=1,LineCode=tieSwitch1,Length=0.001,Units=km,switch=T !numEQ 105983
new line.CTR100603 bus1=BMT126543869.3,bus2=BMT126543967.3,Phases=1,LineCode=tieSwitch1,Length=0.001,Units=km,switch=T !numEQ 105984
new line.CTR100624 bus1=BMT126586898.1.2.3,bus2=BMT126586912.1.2.3,Phases=3,LineCode=tieSwitch,Length=0.001,Units=km,switch=T !numEQ 105987
new line.CTR100995 bus1=BMT126556189.1,bus2=BMT126556245.1,Phases=1,LineCode=tieSwitch1,Length=0.001,Units=km,switch=T !numEQ 104716
new line.CTR101002 bus1=BMT126600219.2,bus2=BMT126600289.2,Phases=1,LineCode=tieSwitch1,Length=0.001,Units=km,switch=T !numEQ 104718
new line.CTR101009 bus1=BMT126557463.3,bus2=BMT161625199.3,Phases=1,LineCode=tieSwitch1,Length=0.001,Units=km,switch=T !numEQ 104719
new line.CTR101016 bus1=BMT126581354.2,bus2=BMT126581368.2,Phases=1,LineCode=tieSwitch1,Length=0.001,Units=km,switch=T !numEQ 104720
new line.CTR101023 bus1=BMT126598140.2,bus2=BMT160124489.2,Phases=1,LineCode=tieSwitch1,Length=0.001,Units=km,switch=T !numEQ 104721
new line.CTR101051 bus1=BMT126556000.1,bus2=BMT126558730.1,Phases=1,LineCode=tieSwitch1,Length=0.001,Units=km,switch=T !numEQ 104726
new line.CTR101191 bus1=BMT168769157.1.2.3,bus2=BMT126569608.1.2.3,Phases=3,LineCode=tieSwitch,Length=0.001,Units=km,switch=T !numEQ 104750
open line.CTR101191 term=1
new line.CTR126258 bus1=BMT126554152.2,bus2=BMT126554341.2,Phases=1,LineCode=tieSwitch1,Length=0.001,Units=km,switch=T !numEQ 190343
new line.CTR138597 bus1=BMT168053045.3,bus2=BMT170649167.3,Phases=1,LineCode=tieSwitch1,Length=0.001,Units=km,switch=T !numEQ 46870
new line.CTR153964 bus1=BMT151530005.1.2.3,bus2=BMT148588499.1.2.3,Phases=3,LineCode=tieSwitch,Length=0.001,Units=km,switch=T !numEQ 51977
new line.CTR154055 bus1=BMT126581564.2,bus2=BMT136332942.2,Phases=1,LineCode=tieSwitch1,Length=0.001,Units=km,switch=T !numEQ 51691
new line.CTR154111 bus1=BMT126583230.3,bus2=BMT167532459.3,Phases=1,LineCode=tieSwitch1,Length=0.001,Units=km,switch=T !numEQ 51730
new line.CTR154125 bus1=BMT126572730.1,bus2=BMT154412985.1,Phases=1,LineCode=tieSwitch1,Length=0.001,Units=km,switch=T !numEQ 51732
new line.CTR154132 bus1=BMT126583118.1.2.3,bus2=BMT126583174.1.2.3,Phases=3,LineCode=tieSwitch,Length=0.001,Units=km,switch=T !numEQ 51734
new line.CTR154139 bus1=BMT126582950.1.2.3,bus2=BMT173226747.1.2.3,Phases=3,LineCode=tieSwitch,Length=0.001,Units=km,switch=T !numEQ 51736
new line.CTR154146 bus1=BMT126583223.3,bus2=BMT140453793.3,Phases=1,LineCode=tieSwitch1,Length=0.001,Units=km,switch=T !numEQ 51737
new line.CTR154153 bus1=BMT126572737.1,bus2=BMT126582334.1,Phases=1,LineCode=tieSwitch1,Length=0.001,Units=km,switch=T !numEQ 51738
new line.CTR154160 bus1=BMT126572618.3,bus2=BMT126582509.3,Phases=1,LineCode=tieSwitch1,Length=0.001,Units=km,switch=T !numEQ 51739
new line.CTR154181 bus1=BMT126583895.3,bus2=BMT140454521.3,Phases=1,LineCode=tieSwitch1,Length=0.001,Units=km,switch=T !numEQ 51744
new line.CTR154188 bus1=BMT126592820.1.2.3,bus2=BMT126593611.1.2.3,Phases=3,LineCode=tieSwitch,Length=0.001,Units=km,switch=T !numEQ 51746
new line.CTR154223 bus1=BMT126592344.1.2.3,bus2=BMT126592764.1.2.3,Phases=3,LineCode=tieSwitch,Length=0.001,Units=km,switch=T !numEQ 51763
new line.CTR154258 bus1=BMT126592953.2,bus2=BMT126593051.2,Phases=1,LineCode=tieSwitch1,Length=0.001,Units=km,switch=T !numEQ 51761
new line.CTR154566 bus1=BMT126597951.1,bus2=BMT126599190.1,Phases=1,LineCode=tieSwitch1,Length=0.001,Units=km,switch=T !numEQ 51833
new line.CTR154748 bus1=BMT126600940.1,bus2=BMT126600968.1,Phases=1,LineCode=tieSwitch1,Length=0.001,Units=km,switch=T !numEQ 51563
new line.CTR154755 bus1=BMT126581592.2,bus2=BMT150194512.2,Phases=1,LineCode=tieSwitch1,Length=0.001,Units=km,switch=T !numEQ 51564
new line.CTR154762 bus1=BMT126581683.2,bus2=BMT158941911.2,Phases=1,LineCode=tieSwitch1,Length=0.001,Units=km,switch=T !numEQ 51565
new line.CTR154769 bus1=BMT126581704.2,bus2=BMT126581970.2,Phases=1,LineCode=tieSwitch1,Length=0.001,Units=km,switch=T !numEQ 51566
new line.CTR154783 bus1=BMT126581767.2,bus2=BMT126581774.2,Phases=1,LineCode=tieSwitch1,Length=0.001,Units=km,switch=T !numEQ 51568
new line.CTR154888 bus1=BMT126573164.2,bus2=BMT126573745.2,Phases=1,LineCode=tieSwitch1,Length=0.001,Units=km,switch=T !numEQ 51601
new line.CTR154895 bus1=BMT126573808.2,bus2=BMT126573850.2,Phases=1,LineCode=tieSwitch1,Length=0.001,Units=km,switch=T !numEQ 51602
new line.CTR154909 bus1=BMT126556441.1.2.3,bus2=BMT152551608.1.2.3,Phases=3,LineCode=tieSwitch,Length=0.001,Units=km,switch=T !numEQ 51607
new line.CTR154916 bus1=BMT126573752.2,bus2=BMT128835067.2,Phases=1,LineCode=tieSwitch1,Length=0.001,Units=km,switch=T !numEQ 51608
new line.CTR154923 bus1=BMT126580311.1.2.3,bus2=BMT158573760.1.2.3,Phases=3,LineCode=tieSwitch,Length=0.001,Units=km,switch=T !numEQ 51609
new line.CTR154930 bus1=BMT126581536.2,bus2=BMT126581550.2,Phases=1,LineCode=tieSwitch1,Length=0.001,Units=km,switch=T !numEQ 51613
new line.CTR154944 bus1=BMT126556595.2,bus2=BMT126556623.2,Phases=1,LineCode=tieSwitch1,Length=0.001,Units=km,switch=T !numEQ 51616
new line.CTR154951 bus1=BMT126556833.1,bus2=BMT126556847.1,Phases=1,LineCode=tieSwitch1,Length=0.001,Units=km,switch=T !numEQ 51619
new line.CTR111565 bus1=BMT170130692.1.2.3,bus2=BMT133057656.1.2.3,Phases=3,LineCode=tieSwitch,Length=0.001,Units=km,switch=T !numEQ 91075
new line.CTR111586 bus1=BMT126551814.1.2.3,bus2=BMT172217368.1.2.3,Phases=3,LineCode=tieSwitch,Length=0.001,Units=km,switch=T !numEQ 91084
new line.CTR111593 bus1=BMT126570168.1.2.3,bus2=BMT126570392.1.2.3,Phases=3,LineCode=tieSwitch,Length=0.001,Units=km,switch=T !numEQ 91086
new line.CTR111607 bus1=BMT164746736.1.2.3,bus2=BMT170217924.1.2.3,Phases=3,LineCode=tieSwitch,Length=0.001,Units=km,switch=T !numEQ 243808
new line.CTR111614 bus1=BMT126570280.1.2.3,bus2=BMT126570294.1.2.3,Phases=3,LineCode=tieSwitch,Length=0.001,Units=km,switch=T !numEQ 91088
new line.CTR111621 bus1=BMT126553130.1.2.3,bus2=BMT126553284.1.2.3,Phases=3,LineCode=tieSwitch,Length=0.001,Units=km,switch=T !numEQ 91090
new line.CTR111628 bus1=BMT126568411.2,bus2=BMT126568418.2,Phases=1,LineCode=tieSwitch1,Length=0.001,Units=km,switch=T !numEQ 182876
new line.CTR111635 bus1=BMT126553137.1.2.3,bus2=BMT126553298.1.2.3,Phases=3,LineCode=tieSwitch,Length=0.001,Units=km,switch=T !numEQ 91091
new line.CTR111649 bus1=BMT126567144.1.2.3,bus2=BMT126567263.1.2.3,Phases=3,LineCode=tieSwitch,Length=0.001,Units=km,switch=T !numEQ 91093
new line.CTR111656 bus1=BMT126567172.1.2.3,bus2=BMT126567200.1.2.3,Phases=3,LineCode=tieSwitch,Length=0.001,Units=km,switch=T !numEQ 91094
new line.CTR111663 bus1=BMT126588984.1.2.3,bus2=BMT173179236.1.2.3,Phases=3,LineCode=tieSwitch,Length=0.001,Units=km,switch=T !numEQ 280643
new line.CTR148742 bus1=BMT126572086.1.2.3,bus2=BMT145512007.1.2.3,Phases=3,LineCode=tieSwitch,Length=0.001,Units=km,switch=T !numEQ 52908
new line.CTR148749 bus1=BMT126572100.1.2.3,bus2=BMT172915164.1.2.3,Phases=3,LineCode=tieSwitch,Length=0.001,Units=km,switch=T !numEQ 52909
new line.CTR148770 bus1=BMT126568516.1.2.3,bus2=BMT126568530.1.2.3,Phases=3,LineCode=tieSwitch,Length=0.001,Units=km,switch=T !numEQ 52913
new line.CTR148889 bus1=BMT126564183.2,bus2=BMT169007422.2,Phases=1,LineCode=tieSwitch1,Length=0.001,Units=km,switch=T !numEQ 52938
new line.CTR148917 bus1=BMT126581802.2,bus2=BMT126581830.2,Phases=1,LineCode=tieSwitch1,Length=0.001,Units=km,switch=T !numEQ 52943
new line.CTR149029 bus1=BMT126597860.1.2.3,bus2=BMT126599393.1.2.3,Phases=3,LineCode=tieSwitch,Length=0.001,Units=km,switch=T !numEQ 52968
new line.CTR149134 bus1=BMT126572436.1.2.3,bus2=BMT126572443.1.2.3,Phases=3,LineCode=tieSwitch,Length=0.001,Units=km,switch=T !numEQ 52708
new line.CTR149183 bus1=BMT126590846.3,bus2=BMT172691206.3,Phases=1,LineCode=tieSwitch1,Length=0.001,Units=km,switch=T !numEQ 52709
new line.CTR149204 bus1=BMT126566388.1.2.3,bus2=BMT126568943.1.2.3,Phases=3,LineCode=tieSwitch,Length=0.001,Units=km,switch=T !numEQ 52714
new line.CTR149218 bus1=BMT126570889.1.2.3,bus2=BMT168158633.1.2.3,Phases=3,LineCode=tieSwitch,Length=0.001,Units=km,switch=T !numEQ 259494
new line.CTR149225 bus1=BMT170296694.1.2.3,bus2=BMT126567816.1.2.3,Phases=3,LineCode=tieSwitch,Length=0.001,Units=km,switch=T !numEQ 52719
open line.CTR149225 term=1
new line.CTR149302 bus1=BMT126572583.1.2.3,bus2=BMT126582803.1.2.3,Phases=3,LineCode=tieSwitch,Length=0.001,Units=km,switch=T !numEQ 52748
new line.CTR149344 bus1=BMT126550834.3,bus2=BMT163036234.3,Phases=1,LineCode=tieSwitch1,Length=0.001,Units=km,switch=T !numEQ 52755
new line.CTR149351 bus1=BMT126550841.2,bus2=BMT126551331.2,Phases=1,LineCode=tieSwitch1,Length=0.001,Units=km,switch=T !numEQ 52756
new line.CTR149372 bus1=BMT168669229.1.2.3,bus2=BMT126555979.1.2.3,Phases=3,LineCode=tieSwitch,Length=0.001,Units=km,switch=T !numEQ 52759
new line.CTR149379 bus1=BMT126592253.1,bus2=BMT126593968.1,Phases=1,LineCode=tieSwitch1,Length=0.001,Units=km,switch=T !numEQ 52761
new line.CTR149386 bus1=BMT126580423.1.2.3,bus2=BMT126581522.1.2.3,Phases=3,LineCode=tieSwitch,Length=0.001,Units=km,switch=T !numEQ 52763
new line.CTR149400 bus1=BMT126555622.2,bus2=BMT126555783.2,Phases=1,LineCode=tieSwitch1,Length=0.001,Units=km,switch=T !numEQ 52768
new line.CTR149407 bus1=BMT126555601.2,bus2=BMT126555608.2,Phases=1,LineCode=tieSwitch1,Length=0.001,Units=km,switch=T !numEQ 52770
new line.CTR149414 bus1=BMT126594521.1.2.3,bus2=BMT169871145.1.2.3,Phases=3,LineCode=tieSwitch,Length=0.001,Units=km,switch=T !numEQ 52771
new line.CTR149421 bus1=BMT126546067.2,bus2=BMT149531134.2,Phases=1,LineCode=tieSwitch1,Length=0.001,Units=km,switch=T !numEQ 52773
new line.CTR149428 bus1=BMT126548020.3,bus2=BMT126548034.3,Phases=1,LineCode=tieSwitch1,Length=0.001,Units=km,switch=T !numEQ 52774
new line.CTR149435 bus1=BMT126588326.3,bus2=BMT168480363.3,Phases=1,LineCode=tieSwitch1,Length=0.001,Units=km,switch=T !numEQ 52776
new line.CTR149512 bus1=BMT126545605.1,bus2=BMT126550309.1,Phases=1,LineCode=tieSwitch1,Length=0.001,Units=km,switch=T !numEQ 52792
new line.CTR149526 bus1=BMT126547558.2,bus2=BMT126549777.2,Phases=1,LineCode=tieSwitch1,Length=0.001,Units=km,switch=T !numEQ 52795
new line.CTR149533 bus1=BMT126579625.1.2.3,bus2=BMT126580234.1.2.3,Phases=3,LineCode=tieSwitch,Length=0.001,Units=km,switch=T !numEQ 52799
new line.CTR150072 bus1=BMT126542994.1,bus2=BMT126543526.1,Phases=1,LineCode=tieSwitch1,Length=0.001,Units=km,switch=T !numEQ 52622
new line.CTR150079 bus1=BMT126544394.1,bus2=BMT126544954.1,Phases=1,LineCode=tieSwitch1,Length=0.001,Units=km,switch=T !numEQ 52627
new line.CTR150107 bus1=BMT126555426.1,bus2=BMT170044738.1,Phases=1,LineCode=tieSwitch1,Length=0.001,Units=km,switch=T !numEQ 52629
new line.CTR150184 bus1=BMT126566997.1.2.3,bus2=BMT169969278.1.2.3,Phases=3,LineCode=tieSwitch,Length=0.001,Units=km,switch=T !numEQ 52641
new line.CTR150198 bus1=BMT126543561.1,bus2=BMT126543617.1,Phases=1,LineCode=tieSwitch1,Length=0.001,Units=km,switch=T !numEQ 52643
new line.CTR150296 bus1=BMT126564036.1,bus2=BMT165293352.1,Phases=1,LineCode=tieSwitch1,Length=0.001,Units=km,switch=T !numEQ 52662
new line.CTR150310 bus1=BMT126571204.1.2.3,bus2=BMT161975474.1.2.3,Phases=3,LineCode=tieSwitch,Length=0.001,Units=km,switch=T !numEQ 52668
new line.CTR150366 bus1=BMT126566367.1.2.3,bus2=BMT170497547.1.2.3,Phases=3,LineCode=tieSwitch,Length=0.001,Units=km,switch=T !numEQ 52686
new line.CTR150422 bus1=BMT126595760.1.2.3,bus2=BMT173224145.1.2.3,Phases=3,LineCode=tieSwitch,Length=0.001,Units=km,switch=T !numEQ 281487
new line.CTR150436 bus1=BMT170631693.1.2.3,bus2=BMT126553004.1.2.3,Phases=3,LineCode=tieSwitch,Length=0.001,Units=km,switch=T !numEQ 52700
new line.CTR150443 bus1=BMT126570910.1.2.3,bus2=BMT126570917.1.2.3,Phases=3,LineCode=tieSwitch,Length=0.001,Units=km,switch=T !numEQ 52701
new line.CTR157821 bus1=BMT126545745.1.2.3,bus2=BMT126545752.1.2.3,Phases=3,LineCode=tieSwitch,Length=0.001,Units=km,switch=T !numEQ 51058
new line.CTR157835 bus1=BMT126553725.3,bus2=BMT126561012.3,Phases=1,LineCode=tieSwitch1,Length=0.001,Units=km,switch=T !numEQ 51061
new line.CTR157842 bus1=BMT126553753.1,bus2=BMT126560977.1,Phases=1,LineCode=tieSwitch1,Length=0.001,Units=km,switch=T !numEQ 51062
new line.CTR157849 bus1=BMT126553809.2,bus2=BMT126560949.2,Phases=1,LineCode=tieSwitch1,Length=0.001,Units=km,switch=T !numEQ 51063
new line.CTR157856 bus1=BMT126553858.3,bus2=BMT168988912.3,Phases=1,LineCode=tieSwitch1,Length=0.001,Units=km,switch=T !numEQ 51064
new line.CTR157863 bus1=BMT126561047.3,bus2=BMT126561075.3,Phases=1,LineCode=tieSwitch1,Length=0.001,Units=km,switch=T !numEQ 51065
new line.CTR157870 bus1=BMT126563112.3,bus2=BMT126563434.3,Phases=1,LineCode=tieSwitch1,Length=0.001,Units=km,switch=T !numEQ 51066
open line.CTR157870 term=1
new line.CTR157884 bus1=BMT126553382.2,bus2=BMT126565156.2,Phases=1,LineCode=tieSwitch1,Length=0.001,Units=km,switch=T !numEQ 51070
new line.CTR157891 bus1=BMT170631689.1.2.3,bus2=BMT126553396.1.2.3,Phases=3,LineCode=tieSwitch,Length=0.001,Units=km,switch=T !numEQ 239799
new line.CTR157898 bus1=BMT126553410.1.2.3,bus2=BMT169953627.1.2.3,Phases=3,LineCode=tieSwitch,Length=0.001,Units=km,switch=T !numEQ 239798
new line.CTR157905 bus1=BMT126553438.1.2.3,bus2=BMT165293093.1.2.3,Phases=3,LineCode=tieSwitch,Length=0.001,Units=km,switch=T !numEQ 51073
new line.CTR157912 bus1=BMT126553445.1,bus2=BMT165293344.1,Phases=1,LineCode=tieSwitch1,Length=0.001,Units=km,switch=T !numEQ 51074
new line.CTR157919 bus1=BMT126553487.1,bus2=BMT165293459.1,Phases=1,LineCode=tieSwitch1,Length=0.001,Units=km,switch=T !numEQ 51075
new line.CTR157926 bus1=BMT126553585.2,bus2=BMT126563455.2,Phases=1,LineCode=tieSwitch1,Length=0.001,Units=km,switch=T !numEQ 51076
new line.CTR157933 bus1=BMT126553606.1.2.3,bus2=BMT153772095.1.2.3,Phases=3,LineCode=tieSwitch,Length=0.001,Units=km,switch=T !numEQ 51077
new line.CTR157947 bus1=BMT126553634.1.2.3,bus2=BMT153742040.1.2.3,Phases=3,LineCode=tieSwitch,Length=0.001,Units=km,switch=T !numEQ 51078
new line.CTR157954 bus1=BMT126553662.1.2.3,bus2=BMT126553669.1.2.3,Phases=3,LineCode=tieSwitch,Length=0.001,Units=km,switch=T !numEQ 290865
new line.CTR157961 bus1=BMT126561131.1.2.3,bus2=BMT126562979.1.2.3,Phases=3,LineCode=tieSwitch,Length=0.001,Units=km,switch=T !numEQ 51081
new line.CTR157968 bus1=BMT126561152.3,bus2=BMT126562839.3,Phases=1,LineCode=tieSwitch1,Length=0.001,Units=km,switch=T !numEQ 51082
new line.CTR157975 bus1=BMT126561159.1.2.3,bus2=BMT168253969.1.2.3,Phases=3,LineCode=tieSwitch,Length=0.001,Units=km,switch=T !numEQ 51083
new line.CTR157989 bus1=BMT126561229.1.2.3,bus2=BMT126561383.1.2.3,Phases=3,LineCode=tieSwitch,Length=0.001,Units=km,switch=T !numEQ 51086
new line.CTR157996 bus1=BMT126561558.3,bus2=BMT126562783.3,Phases=1,LineCode=tieSwitch1,Length=0.001,Units=km,switch=T !numEQ 51087
new line.CTR158003 bus1=BMT126561649.3,bus2=BMT170859298.3,Phases=1,LineCode=tieSwitch1,Length=0.001,Units=km,switch=T !numEQ 51088
new line.CTR158010 bus1=BMT126561670.3,bus2=BMT164065862.3,Phases=1,LineCode=tieSwitch1,Length=0.001,Units=km,switch=T !numEQ 264287
new line.CTR158017 bus1=BMT126561684.3,bus2=BMT126561754.3,Phases=1,LineCode=tieSwitch1,Length=0.001,Units=km,switch=T !numEQ 51090
new line.CTR158024 bus1=BMT126561831.3,bus2=BMT126562314.3,Phases=1,LineCode=tieSwitch1,Length=0.001,Units=km,switch=T !numEQ 51091
new line.CTR158031 bus1=BMT126561866.3,bus2=BMT126562265.3,Phases=1,LineCode=tieSwitch1,Length=0.001,Units=km,switch=T !numEQ 51092
new line.CTR158045 bus1=BMT126563756.1,bus2=BMT165293475.1,Phases=1,LineCode=tieSwitch1,Length=0.001,Units=km,switch=T !numEQ 51101
new line.CTR158073 bus1=BMT126546193.2,bus2=BMT126546207.2,Phases=1,LineCode=tieSwitch1,Length=0.001,Units=km,switch=T !numEQ 51107
new line.CTR158080 bus1=BMT126564330.1.2.3,bus2=BMT154884170.1.2.3,Phases=3,LineCode=tieSwitch,Length=0.001,Units=km,switch=T !numEQ 51108
new line.CTR158101 bus1=BMT126564295.1.2.3,bus2=BMT126564309.1.2.3,Phases=3,LineCode=tieSwitch,Length=0.001,Units=km,switch=T !numEQ 51109
new line.CTR158108 bus1=BMT126564253.1.2.3,bus2=BMT160168515.1.2.3,Phases=3,LineCode=tieSwitch,Length=0.001,Units=km,switch=T !numEQ 51111
new line.CTR158115 bus1=BMT126564239.1.2.3,bus2=BMT126564736.1.2.3,Phases=3,LineCode=tieSwitch,Length=0.001,Units=km,switch=T !numEQ 51112
new line.CTR158122 bus1=BMT126564232.3,bus2=BMT173116455.3,Phases=1,LineCode=tieSwitch1,Length=0.001,Units=km,switch=T !numEQ 51113
new line.CTR158129 bus1=BMT126564204.1.2.3,bus2=BMT171300301.1.2.3,Phases=3,LineCode=tieSwitch,Length=0.001,Units=km,switch=T !numEQ 51114
new line.CTR158136 bus1=BMT126564162.1.2.3,bus2=BMT126564897.1.2.3,Phases=3,LineCode=tieSwitch,Length=0.001,Units=km,switch=T !numEQ 51115
new line.CTR158220 bus1=BMT126546102.2,bus2=BMT126546116.2,Phases=1,LineCode=tieSwitch1,Length=0.001,Units=km,switch=T !numEQ 50875
new line.CTR158269 bus1=BMT126546263.2,bus2=BMT164280758.2,Phases=1,LineCode=tieSwitch1,Length=0.001,Units=km,switch=T !numEQ 50881
new line.CTR158283 bus1=BMT126548167.1.2.3,bus2=BMT162958826.1.2.3,Phases=3,LineCode=tieSwitch,Length=0.001,Units=km,switch=T !numEQ 50883
new line.CTR158381 bus1=BMT126545675.1.2.3,bus2=BMT126550183.1.2.3,Phases=3,LineCode=tieSwitch,Length=0.001,Units=km,switch=T !numEQ 50882
new line.CTR15854 bus1=BMT126552710.1.2.3,bus2=BMT167741707.1.2.3,Phases=3,LineCode=tieSwitch,Length=0.001,Units=km,switch=T !numEQ 187609
new line.CTR158584 bus1=BMT126550911.3,bus2=BMT126551254.3,Phases=1,LineCode=tieSwitch1,Length=0.001,Units=km,switch=T !numEQ 50941
new line.CTR158591 bus1=BMT126600135.2,bus2=BMT126600170.2,Phases=1,LineCode=tieSwitch1,Length=0.001,Units=km,switch=T !numEQ 50942
new line.CTR158598 bus1=BMT126594542.2,bus2=BMT126594619.2,Phases=1,LineCode=tieSwitch1,Length=0.001,Units=km,switch=T !numEQ 50944
new line.CTR158605 bus1=BMT126594549.1.2.3,bus2=BMT126595606.1.2.3,Phases=3,LineCode=tieSwitch,Length=0.001,Units=km,switch=T !numEQ 50945
new line.CTR15861 bus1=BMT126552717.1,bus2=BMT163298605.1,Phases=1,LineCode=tieSwitch1,Length=0.001,Units=km,switch=T !numEQ 187610
new line.CTR158612 bus1=BMT126593240.2,bus2=BMT170239957.2,Phases=1,LineCode=tieSwitch1,Length=0.001,Units=km,switch=T !numEQ 50948
new line.CTR158633 bus1=BMT126550701.1.2.3,bus2=BMT150000683.1.2.3,Phases=3,LineCode=tieSwitch,Length=0.001,Units=km,switch=T !numEQ 50953
new line.CTR158647 bus1=BMT126599911.3,bus2=BMT126599939.3,Phases=1,LineCode=tieSwitch1,Length=0.001,Units=km,switch=T !numEQ 50955
new line.CTR11038 bus1=BMT126567165.1.2.3,bus2=BMT150346055.1.2.3,Phases=3,LineCode=tieSwitch,Length=0.001,Units=km,switch=T !numEQ 183157
new line.CTR122002 bus1=BMT135313749.1.2.3,bus2=BMT157395923.1.2.3,Phases=3,LineCode=tieSwitch,Length=0.001,Units=km,switch=T !numEQ 191208
new line.CTR147223 bus1=BMT126592155.3,bus2=BMT126594423.3,Phases=1,LineCode=tieSwitch1,Length=0.001,Units=km,switch=T !numEQ 53143
new line.CTR147335 bus1=BMT126589299.2,bus2=BMT126589432.2,Phases=1,LineCode=tieSwitch1,Length=0.001,Units=km,switch=T !numEQ 53171
new line.CTR147349 bus1=BMT126569125.1.2.3,bus2=BMT156237075.1.2.3,Phases=3,LineCode=tieSwitch,Length=0.001,Units=km,switch=T !numEQ 53173
new line.CTR147356 bus1=BMT126591917.1,bus2=BMT126600933.1,Phases=1,LineCode=tieSwitch1,Length=0.001,Units=km,switch=T !numEQ 53174
new line.CTR147363 bus1=BMT126589257.2,bus2=BMT126589502.2,Phases=1,LineCode=tieSwitch1,Length=0.001,Units=km,switch=T !numEQ 53175
new line.CTR147370 bus1=BMT126572233.1.2.3,bus2=BMT171864551.1.2.3,Phases=3,LineCode=tieSwitch,Length=0.001,Units=km,switch=T !numEQ 53176
new line.CTR147377 bus1=BMT126599687.1.2.3,bus2=BMT126599778.1.2.3,Phases=3,LineCode=tieSwitch,Length=0.001,Units=km,switch=T !numEQ 53178
new line.CTR147384 bus1=BMT126589243.3,bus2=BMT126589537.3,Phases=1,LineCode=tieSwitch1,Length=0.001,Units=km,switch=T !numEQ 53179
new line.CTR147475 bus1=BMT126587535.1.2.3,bus2=BMT126587563.1.2.3,Phases=3,LineCode=tieSwitch,Length=0.001,Units=km,switch=T !numEQ 53195
new line.CTR147489 bus1=BMT126566591.1.2.3,bus2=BMT172882682.1.2.3,Phases=3,LineCode=tieSwitch,Length=0.001,Units=km,switch=T !numEQ 53196
new line.CTR147496 bus1=BMT126583902.3,bus2=BMT140453863.3,Phases=1,LineCode=tieSwitch1,Length=0.001,Units=km,switch=T !numEQ 53197
new line.CTR147580 bus1=BMT126563308.2,bus2=BMT126563315.2,Phases=1,LineCode=tieSwitch1,Length=0.001,Units=km,switch=T !numEQ 378867
new line.CTR147594 bus1=BMT126572310.1.2.3,bus2=BMT171866976.1.2.3,Phases=3,LineCode=tieSwitch,Length=0.001,Units=km,switch=T !numEQ 53216
new line.CTR147643 bus1=BMT126560809.1,bus2=BMT128833366.1,Phases=1,LineCode=tieSwitch1,Length=0.001,Units=km,switch=T !numEQ 53224
new line.CTR147664 bus1=BMT126544373.1,bus2=BMT160629182.1,Phases=1,LineCode=tieSwitch1,Length=0.001,Units=km,switch=T !numEQ 53227
new line.CTR147860 bus1=BMT126584735.3,bus2=BMT126584742.3,Phases=1,LineCode=tieSwitch1,Length=0.001,Units=km,switch=T !numEQ 53002
new line.CTR147895 bus1=BMT126598700.2,bus2=BMT126598707.2,Phases=1,LineCode=tieSwitch1,Length=0.001,Units=km,switch=T !numEQ 53014
new line.CTR147972 bus1=BMT126556175.3,bus2=BMT159691400.3,Phases=1,LineCode=tieSwitch1,Length=0.001,Units=km,switch=T !numEQ 53027
new line.CTR147986 bus1=BMT126556637.2,bus2=BMT167533307.2,Phases=1,LineCode=tieSwitch1,Length=0.001,Units=km,switch=T !numEQ 53029
new line.CTR148000 bus1=BMT126561418.1.2.3,bus2=BMT126561446.1.2.3,Phases=3,LineCode=tieSwitch,Length=0.001,Units=km,switch=T !numEQ 53031
new line.CTR148035 bus1=BMT167635569.2,bus2=BMT126595830.2,Phases=1,LineCode=tieSwitch1,Length=0.001,Units=km,switch=T !numEQ 281488
open line.CTR148035 term=1
new line.CTR148098 bus1=BMT126556154.1.2.3,bus2=BMT164549849.1.2.3,Phases=3,LineCode=tieSwitch,Length=0.001,Units=km,switch=T !numEQ 53028
new line.CTR148161 bus1=BMT126588235.1,bus2=BMT126588459.1,Phases=1,LineCode=tieSwitch1,Length=0.001,Units=km,switch=T !numEQ 53062
new line.CTR148196 bus1=BMT126545766.1,bus2=BMT153422115.1,Phases=1,LineCode=tieSwitch1,Length=0.001,Units=km,switch=T !numEQ 53068
new line.CTR148203 bus1=BMT126550981.3,bus2=BMT156639759.3,Phases=1,LineCode=tieSwitch1,Length=0.001,Units=km,switch=T !numEQ 53069
new line.CTR14825 bus1=BMT126553550.1,bus2=BMT165293583.1,Phases=1,LineCode=tieSwitch1,Length=0.001,Units=km,switch=T !numEQ 187825
new line.CTR148273 bus1=BMT126579709.2,bus2=BMT128835256.2,Phases=1,LineCode=tieSwitch1,Length=0.001,Units=km,switch=T !numEQ 53081
new line.CTR148280 bus1=BMT126585155.3,bus2=BMT162487313.3,Phases=1,LineCode=tieSwitch1,Length=0.001,Units=km,switch=T !numEQ 53082
new line.CTR148301 bus1=BMT126598770.3,bus2=BMT126598959.3,Phases=1,LineCode=tieSwitch1,Length=0.001,Units=km,switch=T !numEQ 53085
new line.CTR148308 bus1=BMT126553872.1,bus2=BMT126560788.1,Phases=1,LineCode=tieSwitch1,Length=0.001,Units=km,switch=T !numEQ 53086
new line.CTR148322 bus1=BMT126561306.3,bus2=BMT126561327.3,Phases=1,LineCode=tieSwitch1,Length=0.001,Units=km,switch=T !numEQ 53089
new line.CTR148371 bus1=BMT126587661.3,bus2=BMT167580997.3,Phases=1,LineCode=tieSwitch1,Length=0.001,Units=km,switch=T !numEQ 53108
new line.CTR148420 bus1=BMT126595746.2,bus2=BMT126596670.2,Phases=1,LineCode=tieSwitch1,Length=0.001,Units=km,switch=T !numEQ 53117
new line.CTR148434 bus1=BMT126586163.2,bus2=BMT126586226.2,Phases=1,LineCode=tieSwitch1,Length=0.001,Units=km,switch=T !numEQ 53119
new line.CTR148469 bus1=BMT126550967.3,bus2=BMT126551191.3,Phases=1,LineCode=tieSwitch1,Length=0.001,Units=km,switch=T !numEQ 53125
new line.CTR148476 bus1=BMT126571610.1.2.3,bus2=BMT126571673.1.2.3,Phases=3,LineCode=tieSwitch,Length=0.001,Units=km,switch=T !numEQ 53126
new line.CTR148490 bus1=BMT126546284.2,bus2=BMT126546340.2,Phases=1,LineCode=tieSwitch1,Length=0.001,Units=km,switch=T !numEQ 53128
new line.CTR148504 bus1=BMT126556203.1.2.3,bus2=BMT126556231.1.2.3,Phases=3,LineCode=tieSwitch,Length=0.001,Units=km,switch=T !numEQ 53130
open line.CTR148504 term=1
new line.CTR148511 bus1=BMT126553116.1.2.3,bus2=BMT126553312.1.2.3,Phases=3,LineCode=tieSwitch,Length=0.001,Units=km,switch=T !numEQ 53131
new line.CTR148700 bus1=BMT126570462.1.2.3,bus2=BMT126570469.1.2.3,Phases=3,LineCode=tieSwitch,Length=0.001,Units=km,switch=T !numEQ 52902
new line.CTR148707 bus1=BMT126550848.3,bus2=BMT168053031.3,Phases=1,LineCode=tieSwitch1,Length=0.001,Units=km,switch=T !numEQ 52904
new line.CTR148721 bus1=BMT126582978.1,bus2=BMT126584763.1,Phases=1,LineCode=tieSwitch1,Length=0.001,Units=km,switch=T !numEQ 52905
new line.CTR148728 bus1=BMT126566766.1.2.3,bus2=BMT126566773.1.2.3,Phases=3,LineCode=tieSwitch,Length=0.001,Units=km,switch=T !numEQ 52906
new line.CTR161216 bus1=BMT126547712.1,bus2=BMT126547754.1,Phases=1,LineCode=tieSwitch1,Length=0.001,Units=km,switch=T !numEQ 50406
new line.CTR161356 bus1=BMT126585750.3,bus2=BMT168999605.3,Phases=1,LineCode=tieSwitch1,Length=0.001,Units=km,switch=T !numEQ 50429
new line.CTR161363 bus1=BMT126585652.1.2.3,bus2=BMT168174180.1.2.3,Phases=3,LineCode=tieSwitch,Length=0.001,Units=km,switch=T !numEQ 50430
new line.CTR161370 bus1=BMT126585722.3,bus2=BMT126586625.3,Phases=1,LineCode=tieSwitch1,Length=0.001,Units=km,switch=T !numEQ 50431
new line.CTR150660 bus1=BMT126590055.3,bus2=BMT172966952.3,Phases=1,LineCode=tieSwitch1,Length=0.001,Units=km,switch=T !numEQ 52404
new line.CTR150709 bus1=BMT126569195.1.2.3,bus2=BMT168484198.1.2.3,Phases=3,LineCode=tieSwitch,Length=0.001,Units=km,switch=T !numEQ 52415
new line.CTR150737 bus1=BMT126585638.1.2.3,bus2=BMT126586674.1.2.3,Phases=3,LineCode=tieSwitch,Length=0.001,Units=km,switch=T !numEQ 52427
new line.CTR150744 bus1=BMT126564337.2,bus2=BMT164411973.2,Phases=1,LineCode=tieSwitch1,Length=0.001,Units=km,switch=T !numEQ 52429
new line.CTR150758 bus1=BMT126547614.1,bus2=BMT126547663.1,Phases=1,LineCode=tieSwitch1,Length=0.001,Units=km,switch=T !numEQ 52433
new line.CTR150765 bus1=BMT126595711.1,bus2=BMT150594501.1,Phases=1,LineCode=tieSwitch1,Length=0.001,Units=km,switch=T !numEQ 52434
new line.CTR150835 bus1=BMT126554502.1.2.3,bus2=BMT141270854.1.2.3,Phases=3,LineCode=tieSwitch,Length=0.001,Units=km,switch=T !numEQ 52475
new line.CTR150891 bus1=BMT126591147.1.2.3,bus2=BMT164814897.1.2.3,Phases=3,LineCode=tieSwitch,Length=0.001,Units=km,switch=T !numEQ 52505
new line.CTR151500 bus1=BMT126598777.3,bus2=BMT126598791.3,Phases=1,LineCode=tieSwitch1,Length=0.001,Units=km,switch=T !numEQ 52297
new line.CTR151521 bus1=BMT126569097.1.2.3,bus2=BMT172887325.1.2.3,Phases=3,LineCode=tieSwitch,Length=0.001,Units=km,switch=T !numEQ 52307
new line.CTR151528 bus1=BMT126589943.3,bus2=BMT171289426.3,Phases=1,LineCode=tieSwitch1,Length=0.001,Units=km,switch=T !numEQ 52308
new line.CTR151535 bus1=BMT2886407.1.2.3,bus2=BMT170893118.1.2.3,Phases=3,LineCode=tieSwitch,Length=0.001,Units=km,switch=T !numEQ 52310
new line.CTR151563 bus1=BMT126549350.1.2.3,bus2=BMT126549371.1.2.3,Phases=3,LineCode=tieSwitch,Length=0.001,Units=km,switch=T !numEQ 52317
new line.CTR151577 bus1=BMT126572611.1,bus2=BMT126582775.1,Phases=1,LineCode=tieSwitch1,Length=0.001,Units=km,switch=T !numEQ 52320
new line.CTR151584 bus1=BMT126572625.1,bus2=BMT126582481.1,Phases=1,LineCode=tieSwitch1,Length=0.001,Units=km,switch=T !numEQ 52323
new line.CTR151591 bus1=BMT147545605.1.2.3,bus2=BMT126570049.1.2.3,Phases=3,LineCode=tieSwitch,Length=0.001,Units=km,switch=T !numEQ 52324
open line.CTR151591 term=1
new line.CTR151598 bus1=BMT126572541.1.2.3,bus2=BMT126582831.1.2.3,Phases=3,LineCode=tieSwitch,Length=0.001,Units=km,switch=T !numEQ 52325
new line.CTR151605 bus1=BMT126572121.1,bus2=BMT126588760.1,Phases=1,LineCode=tieSwitch1,Length=0.001,Units=km,switch=T !numEQ 52326
new line.CTR151612 bus1=BMT126572506.3,bus2=BMT167545381.3,Phases=1,LineCode=tieSwitch1,Length=0.001,Units=km,switch=T !numEQ 52327
new line.CTR151619 bus1=BMT126588858.1.2.3,bus2=BMT171854475.1.2.3,Phases=3,LineCode=tieSwitch,Length=0.001,Units=km,switch=T !numEQ 52328
new line.CTR151626 bus1=BMT126583195.1.2.3,bus2=BMT126584623.1.2.3,Phases=3,LineCode=tieSwitch,Length=0.001,Units=km,switch=T !numEQ 52329
new line.CTR151640 bus1=BMT126598371.2,bus2=BMT170238227.2,Phases=1,LineCode=tieSwitch1,Length=0.001,Units=km,switch=T !numEQ 52332
new line.CTR151647 bus1=BMT126591945.3,bus2=BMT126600401.3,Phases=1,LineCode=tieSwitch1,Length=0.001,Units=km,switch=T !numEQ 52333
new line.CTR151654 bus1=BMT126566136.3,bus2=BMT164839152.3,Phases=1,LineCode=tieSwitch1,Length=0.001,Units=km,switch=T !numEQ 52334
new line.CTR151661 bus1=BMT126550988.3,bus2=BMT126551009.3,Phases=1,LineCode=tieSwitch1,Length=0.001,Units=km,switch=T !numEQ 52336
new line.CTR151668 bus1=BMT126544401.1,bus2=BMT126544408.1,Phases=1,LineCode=tieSwitch1,Length=0.001,Units=km,switch=T !numEQ 52338
new line.CTR151682 bus1=BMT170725547.1.2.3,bus2=BMT126555594.1.2.3,Phases=3,LineCode=tieSwitch,Length=0.001,Units=km,switch=T !numEQ 52342
new line.CTR151696 bus1=BMT126555580.2,bus2=BMT126555916.2,Phases=1,LineCode=tieSwitch1,Length=0.001,Units=km,switch=T !numEQ 52345
new line.CTR151703 bus1=BMT126592092.1.2.3,bus2=BMT126597853.1.2.3,Phases=3,LineCode=tieSwitch,Length=0.001,Units=km,switch=T !numEQ 52348
new line.CTR151920 bus1=BMT171831295.1.2.3,bus2=BMT151472701.1.2.3,Phases=3,LineCode=tieSwitch,Length=0.001,Units=km,switch=T !numEQ 52100
new line.CTR151955 bus1=BMT126564400.2,bus2=BMT126564575.2,Phases=1,LineCode=tieSwitch1,Length=0.001,Units=km,switch=T !numEQ 52105
new line.CTR151962 bus1=BMT126564407.2,bus2=BMT126564477.2,Phases=1,LineCode=tieSwitch1,Length=0.001,Units=km,switch=T !numEQ 52106
new line.CTR151969 bus1=BMT126579912.2,bus2=BMT154697294.2,Phases=1,LineCode=tieSwitch1,Length=0.001,Units=km,switch=T !numEQ 52108
new line.CTR151983 bus1=BMT126579646.2,bus2=BMT126580220.2,Phases=1,LineCode=tieSwitch1,Length=0.001,Units=km,switch=T !numEQ 52110
new line.CTR152039 bus1=BMT126587682.1.2.3,bus2=BMT126588592.1.2.3,Phases=3,LineCode=tieSwitch,Length=0.001,Units=km,switch=T !numEQ 52137
new line.CTR152053 bus1=BMT126583013.3,bus2=BMT126584686.3,Phases=1,LineCode=tieSwitch1,Length=0.001,Units=km,switch=T !numEQ 52142
new line.CTR152074 bus1=BMT126579492.3,bus2=BMT149060891.3,Phases=1,LineCode=tieSwitch1,Length=0.001,Units=km,switch=T !numEQ 52150
new line.CTR152081 bus1=BMT126590629.3,bus2=BMT126590643.3,Phases=1,LineCode=tieSwitch1,Length=0.001,Units=km,switch=T !numEQ 52151
new line.CTR152095 bus1=BMT126590664.3,bus2=BMT126590727.3,Phases=1,LineCode=tieSwitch1,Length=0.001,Units=km,switch=T !numEQ 52154
new line.CTR152137 bus1=BMT126599561.1.2.3,bus2=BMT126600044.1.2.3,Phases=3,LineCode=tieSwitch,Length=0.001,Units=km,switch=T !numEQ 52160
new line.CTR152144 bus1=BMT126599456.1,bus2=BMT126600373.1,Phases=1,LineCode=tieSwitch1,Length=0.001,Units=km,switch=T !numEQ 52161
new line.CTR152151 bus1=BMT126590062.3,bus2=BMT126590559.3,Phases=1,LineCode=tieSwitch1,Length=0.001,Units=km,switch=T !numEQ 52163
new line.CTR152193 bus1=BMT126581795.2,bus2=BMT154622259.2,Phases=1,LineCode=tieSwitch1,Length=0.001,Units=km,switch=T !numEQ 52171
new line.CTR152200 bus1=BMT126595648.1.2.3,bus2=BMT126597433.1.2.3,Phases=3,LineCode=tieSwitch,Length=0.001,Units=km,switch=T !numEQ 52173
new line.CTR152207 bus1=BMT171511929.1.2.3,bus2=BMT126556427.1.2.3,Phases=3,LineCode=tieSwitch,Length=0.001,Units=km,switch=T !numEQ 52174
new line.CTR152228 bus1=BMT126588284.3,bus2=BMT126588431.3,Phases=1,LineCode=tieSwitch1,Length=0.001,Units=km,switch=T !numEQ 52179
new line.CTR152242 bus1=BMT126572856.3,bus2=BMT168983793.3,Phases=1,LineCode=tieSwitch1,Length=0.001,Units=km,switch=T !numEQ 52183
new line.CTR16484 bus1=BMT126600408.3,bus2=BMT160159196.3,Phases=1,LineCode=tieSwitch1,Length=0.001,Units=km,switch=T !numEQ 183098
new line.CTR165395 bus1=BMT126580143.1.2.3,bus2=BMT126580206.1.2.3,Phases=3,LineCode=tieSwitch,Length=0.001,Units=km,switch=T !numEQ 192603
new line.CTR161433 bus1=BMT169969287.1.2.3,bus2=BMT126567102.1.2.3,Phases=3,LineCode=tieSwitch,Length=0.001,Units=km,switch=T !numEQ 50440
new line.CTR161440 bus1=BMT126569272.1.2.3,bus2=BMT126569279.1.2.3,Phases=3,LineCode=tieSwitch,Length=0.001,Units=km,switch=T !numEQ 50441
new line.CTR161447 bus1=BMT126566507.1.2.3,bus2=BMT172816903.1.2.3,Phases=3,LineCode=tieSwitch,Length=0.001,Units=km,switch=T !numEQ 50442
new line.CTR161454 bus1=BMT126566745.1.2.3,bus2=BMT126566752.1.2.3,Phases=3,LineCode=tieSwitch,Length=0.001,Units=km,switch=T !numEQ 50443
new line.CTR161468 bus1=BMT126567018.1.2.3,bus2=BMT168769158.1.2.3,Phases=3,LineCode=tieSwitch,Length=0.001,Units=km,switch=T !numEQ 233160
new line.CTR161482 bus1=BMT126570658.1.2.3,bus2=BMT126570665.1.2.3,Phases=3,LineCode=tieSwitch,Length=0.001,Units=km,switch=T !numEQ 50447
open line.CTR161482 term=1
new line.CTR161489 bus1=BMT126592288.3,bus2=BMT161567136.3,Phases=1,LineCode=tieSwitch1,Length=0.001,Units=km,switch=T !numEQ 50448
new line.CTR161496 bus1=BMT126592281.1,bus2=BMT168506005.1,Phases=1,LineCode=tieSwitch1,Length=0.001,Units=km,switch=T !numEQ 50449
new line.CTR161510 bus1=BMT126566787.1.2.3,bus2=BMT161805324.1.2.3,Phases=3,LineCode=tieSwitch,Length=0.001,Units=km,switch=T !numEQ 50454
new line.CTR161531 bus1=BMT126594759.1.2.3,bus2=BMT170649016.1.2.3,Phases=3,LineCode=tieSwitch,Length=0.001,Units=km,switch=T !numEQ 50457
new line.CTR161636 bus1=BMT3771585.1.2.3,bus2=BMT164132477.1.2.3,Phases=3,LineCode=tieSwitch,Length=0.001,Units=km,switch=T !numEQ 50245
new line.CTR161657 bus1=BMT164499772.1.2.3,bus2=BMT126569650.1.2.3,Phases=3,LineCode=tieSwitch,Length=0.001,Units=km,switch=T !numEQ 50201
open line.CTR161657 term=1
new line.CTR161671 bus1=BMT126569153.1.2.3,bus2=BMT126569223.1.2.3,Phases=3,LineCode=tieSwitch,Length=0.001,Units=km,switch=T !numEQ 50225
new line.CTR161678 bus1=BMT126566052.1.2.3,bus2=BMT126566101.1.2.3,Phases=3,LineCode=tieSwitch,Length=0.001,Units=km,switch=T !numEQ 50227
new line.CTR161685 bus1=BMT126572184.1.2.3,bus2=BMT161184988.1.2.3,Phases=3,LineCode=tieSwitch,Length=0.001,Units=km,switch=T !numEQ 50229
new line.CTR161692 bus1=BMT126570805.1.2.3,bus2=BMT164499775.1.2.3,Phases=3,LineCode=tieSwitch,Length=0.001,Units=km,switch=T !numEQ 50230
new line.CTR161699 bus1=BMT126570931.1.2.3,bus2=BMT126570945.1.2.3,Phases=3,LineCode=tieSwitch,Length=0.001,Units=km,switch=T !numEQ 50231
new line.CTR161706 bus1=BMT126569293.1.2.3,bus2=BMT150346067.1.2.3,Phases=3,LineCode=tieSwitch,Length=0.001,Units=km,switch=T !numEQ 50234
new line.CTR161727 bus1=BMT126570980.1.2.3,bus2=BMT126571295.1.2.3,Phases=3,LineCode=tieSwitch,Length=0.001,Units=km,switch=T !numEQ 50238
new line.CTR161734 bus1=BMT126569412.1.2.3,bus2=BMT126570777.1.2.3,Phases=3,LineCode=tieSwitch,Length=0.001,Units=km,switch=T !numEQ 50239
new line.CTR161741 bus1=BMT126592442.3,bus2=BMT154963437.3,Phases=1,LineCode=tieSwitch1,Length=0.001,Units=km,switch=T !numEQ 50240
new line.CTR161748 bus1=BMT126569867.1.2.3,bus2=BMT126569958.1.2.3,Phases=3,LineCode=tieSwitch,Length=0.001,Units=km,switch=T !numEQ 50241
new line.CTR161755 bus1=BMT126567578.1.2.3,bus2=BMT169621799.1.2.3,Phases=3,LineCode=tieSwitch,Length=0.001,Units=km,switch=T !numEQ 50242
new line.CTR161797 bus1=BMT126572205.1.2.3,bus2=BMT161184520.1.2.3,Phases=3,LineCode=tieSwitch,Length=0.001,Units=km,switch=T !numEQ 50246
new line.CTR161804 bus1=BMT126587731.1.2.3,bus2=BMT168718844.1.2.3,Phases=3,LineCode=tieSwitch,Length=0.001,Units=km,switch=T !numEQ 50247
new line.CTR161811 bus1=BMT126587822.1.2.3,bus2=BMT162941004.1.2.3,Phases=3,LineCode=tieSwitch,Length=0.001,Units=km,switch=T !numEQ 50248
new line.CTR161818 bus1=BMT126587857.1.2.3,bus2=BMT126587864.1.2.3,Phases=3,LineCode=tieSwitch,Length=0.001,Units=km,switch=T !numEQ 50249
new line.CTR161825 bus1=BMT126587878.1.2.3,bus2=BMT126587892.1.2.3,Phases=3,LineCode=tieSwitch,Length=0.001,Units=km,switch=T !numEQ 50250
new line.CTR161832 bus1=BMT126572989.1.2.3,bus2=BMT148774398.1.2.3,Phases=3,LineCode=tieSwitch,Length=0.001,Units=km,switch=T !numEQ 50251
new line.CTR161853 bus1=BMT126569286.1.2.3,bus2=BMT141901960.1.2.3,Phases=3,LineCode=tieSwitch,Length=0.001,Units=km,switch=T !numEQ 50256
new line.CTR161860 bus1=BMT126572513.1.2.3,bus2=BMT168501320.1.2.3,Phases=3,LineCode=tieSwitch,Length=0.001,Units=km,switch=T !numEQ 50257
new line.CTR161867 bus1=BMT126572709.1.2.3,bus2=BMT126572716.1.2.3,Phases=3,LineCode=tieSwitch,Length=0.001,Units=km,switch=T !numEQ 50259
new line.CTR161874 bus1=BMT126572758.1.2.3,bus2=BMT126572765.1.2.3,Phases=3,LineCode=tieSwitch,Length=0.001,Units=km,switch=T !numEQ 50260
new line.CTR161881 bus1=BMT126572807.3,bus2=BMT126580381.3,Phases=1,LineCode=tieSwitch1,Length=0.001,Units=km,switch=T !numEQ 50261
new line.CTR161888 bus1=BMT126572814.1.2.3,bus2=BMT126579597.1.2.3,Phases=3,LineCode=tieSwitch,Length=0.001,Units=km,switch=T !numEQ 50262
new line.CTR161895 bus1=BMT126572870.1.2.3,bus2=BMT126572877.1.2.3,Phases=3,LineCode=tieSwitch,Length=0.001,Units=km,switch=T !numEQ 50263
new line.CTR161902 bus1=BMT126572891.1.2.3,bus2=BMT126572933.1.2.3,Phases=3,LineCode=tieSwitch,Length=0.001,Units=km,switch=T !numEQ 50264
new line.CTR161916 bus1=BMT126192938.2,bus2=BMT126192952.2,Phases=1,LineCode=tieSwitch1,Length=0.001,Units=km,switch=T !numEQ 50267
new line.CTR161923 bus1=BMT126573038.1.2.3,bus2=BMT151289073.1.2.3,Phases=3,LineCode=tieSwitch,Length=0.001,Units=km,switch=T !numEQ 50268
new line.CTR161930 bus1=BMT126579723.1.2.3,bus2=BMT171314818.1.2.3,Phases=3,LineCode=tieSwitch,Length=0.001,Units=km,switch=T !numEQ 50269
new line.CTR161937 bus1=BMT126582915.1.2.3,bus2=BMT170570724.1.2.3,Phases=3,LineCode=tieSwitch,Length=0.001,Units=km,switch=T !numEQ 50270
new line.CTR161944 bus1=BMT126572590.3,bus2=BMT172802289.3,Phases=1,LineCode=tieSwitch1,Length=0.001,Units=km,switch=T !numEQ 50271
new line.CTR161951 bus1=BMT126591924.1.2.3,bus2=BMT126591931.1.2.3,Phases=3,LineCode=tieSwitch,Length=0.001,Units=km,switch=T !numEQ 50273
new line.CTR161958 bus1=BMT126591952.1.2.3,bus2=BMT150567635.1.2.3,Phases=3,LineCode=tieSwitch,Length=0.001,Units=km,switch=T !numEQ 50274
new line.CTR161965 bus1=BMT126592239.1.2.3,bus2=BMT142951722.1.2.3,Phases=3,LineCode=tieSwitch,Length=0.001,Units=km,switch=T !numEQ 50276
new line.CTR161972 bus1=BMT126592316.1.2.3,bus2=BMT128838595.1.2.3,Phases=3,LineCode=tieSwitch,Length=0.001,Units=km,switch=T !numEQ 50277
new line.CTR161979 bus1=BMT126592372.1.2.3,bus2=BMT126592386.1.2.3,Phases=3,LineCode=tieSwitch,Length=0.001,Units=km,switch=T !numEQ 50278
new line.CTR162028 bus1=BMT126591973.1.2.3,bus2=BMT126599421.1.2.3,Phases=3,LineCode=tieSwitch,Length=0.001,Units=km,switch=T !numEQ 50285
new line.CTR146964 bus1=BMT172948179.1.2.3,bus2=BMT173119975.1.2.3,Phases=3,LineCode=tieSwitch,Length=0.001,Units=km,switch=T !numEQ 53361
new line.CTR146971 bus1=BMT126569055.1.2.3,bus2=BMT163481293.1.2.3,Phases=3,LineCode=tieSwitch,Length=0.001,Units=km,switch=T !numEQ 53362
new line.CTR146985 bus1=BMT126572044.1.2.3,bus2=BMT126589712.1.2.3,Phases=3,LineCode=tieSwitch,Length=0.001,Units=km,switch=T !numEQ 53365
new line.CTR146992 bus1=BMT126566857.1.2.3,bus2=BMT126568383.1.2.3,Phases=3,LineCode=tieSwitch,Length=0.001,Units=km,switch=T !numEQ 53367
new line.CTR147027 bus1=BMT168904849.1.2.3,bus2=BMT126569580.1.2.3,Phases=3,LineCode=tieSwitch,Length=0.001,Units=km,switch=T !numEQ 53368
new line.CTR147034 bus1=BMT126561915.3,bus2=BMT171470054.3,Phases=1,LineCode=tieSwitch1,Length=0.001,Units=km,switch=T !numEQ 221056
new line.CTR147083 bus1=BMT126544499.1,bus2=BMT126544919.1,Phases=1,LineCode=tieSwitch1,Length=0.001,Units=km,switch=T !numEQ 53390
new line.CTR147132 bus1=BMT126589320.1,bus2=BMT126589397.1,Phases=1,LineCode=tieSwitch1,Length=0.001,Units=km,switch=T !numEQ 53164
new line.CTR147139 bus1=BMT126589334.3,bus2=BMT126589362.3,Phases=1,LineCode=tieSwitch1,Length=0.001,Units=km,switch=T !numEQ 53165
new line.CTR147146 bus1=BMT126589229.1,bus2=BMT126589677.1,Phases=1,LineCode=tieSwitch1,Length=0.001,Units=km,switch=T !numEQ 53166
new line.CTR147153 bus1=BMT126588886.3,bus2=BMT126589201.3,Phases=1,LineCode=tieSwitch1,Length=0.001,Units=km,switch=T !numEQ 53167
new line.CTR147160 bus1=BMT126589278.1,bus2=BMT126589481.1,Phases=1,LineCode=tieSwitch1,Length=0.001,Units=km,switch=T !numEQ 53169
new line.CTR147167 bus1=BMT126588893.1.2.3,bus2=BMT172344383.1.2.3,Phases=3,LineCode=tieSwitch,Length=0.001,Units=km,switch=T !numEQ 53170
new line.CTR158913 bus1=BMT2094805.1.2.3,bus2=BMT170726586.1.2.3,Phases=3,LineCode=tieSwitch,Length=0.001,Units=km,switch=T !numEQ 50753
new line.CTR159389 bus1=BMT126547691.1,bus2=BMT126547845.1,Phases=1,LineCode=tieSwitch1,Length=0.001,Units=km,switch=T !numEQ 50835
new line.CTR159396 bus1=BMT126548321.1.2.3,bus2=BMT126548440.1.2.3,Phases=3,LineCode=tieSwitch,Length=0.001,Units=km,switch=T !numEQ 50836
new line.CTR159417 bus1=BMT126546144.2,bus2=BMT170106075.2,Phases=1,LineCode=tieSwitch1,Length=0.001,Units=km,switch=T !numEQ 50842
new line.CTR159424 bus1=BMT126592869.1,bus2=BMT126593562.1,Phases=1,LineCode=tieSwitch1,Length=0.001,Units=km,switch=T !numEQ 50843
new line.CTR159466 bus1=BMT126572723.1.2.3,bus2=BMT126582439.1.2.3,Phases=3,LineCode=tieSwitch,Length=0.001,Units=km,switch=T !numEQ 50855
new line.CTR159984 bus1=BMT126546361.2,bus2=BMT165989873.2,Phases=1,LineCode=tieSwitch1,Length=0.001,Units=km,switch=T !numEQ 50689
new line.CTR159998 bus1=BMT126544639.1,bus2=BMT126544646.1,Phases=1,LineCode=tieSwitch1,Length=0.001,Units=km,switch=T !numEQ 50692
new line.CTR160005 bus1=BMT126544632.1,bus2=BMT126544653.1,Phases=1,LineCode=tieSwitch1,Length=0.001,Units=km,switch=T !numEQ 50693
new line.CTR160012 bus1=BMT126546347.2,bus2=BMT126546515.2,Phases=1,LineCode=tieSwitch1,Length=0.001,Units=km,switch=T !numEQ 50694
new line.CTR160019 bus1=BMT170158994.1,bus2=BMT126544555.1,Phases=1,LineCode=tieSwitch1,Length=0.001,Units=km,switch=T !numEQ 50695
new line.CTR160026 bus1=BMT126546088.2,bus2=BMT126547446.2,Phases=1,LineCode=tieSwitch1,Length=0.001,Units=km,switch=T !numEQ 50696
new line.CTR160033 bus1=BMT126546172.2,bus2=BMT126547292.2,Phases=1,LineCode=tieSwitch1,Length=0.001,Units=km,switch=T !numEQ 50697
new line.CTR1602 bus1=BMT126583377.3,bus2=BMT126583391.3,Phases=1,LineCode=tieSwitch1,Length=0.001,Units=km,switch=T !numEQ 53370
new line.CTR160348 bus1=BMT126585827.1,bus2=BMT126585862.1,Phases=1,LineCode=tieSwitch1,Length=0.001,Units=km,switch=T !numEQ 50508
new line.CTR160362 bus1=BMT126585848.1,bus2=BMT126585855.1,Phases=1,LineCode=tieSwitch1,Length=0.001,Units=km,switch=T !numEQ 50511
open line.CTR160362 term=1
new line.CTR160369 bus1=BMT126586828.1.2.3,bus2=BMT126586863.1.2.3,Phases=3,LineCode=tieSwitch,Length=0.001,Units=km,switch=T !numEQ 50512
new line.CTR160376 bus1=BMT126586975.2,bus2=BMT126587003.2,Phases=1,LineCode=tieSwitch1,Length=0.001,Units=km,switch=T !numEQ 50513
new line.CTR160432 bus1=BMT126590748.3,bus2=BMT149409965.3,Phases=1,LineCode=tieSwitch1,Length=0.001,Units=km,switch=T !numEQ 50520
new line.CTR160439 bus1=BMT126590839.3,bus2=BMT126590902.3,Phases=1,LineCode=tieSwitch1,Length=0.001,Units=km,switch=T !numEQ 50521
new line.CTR160446 bus1=BMT126588046.2,bus2=BMT153000826.2,Phases=1,LineCode=tieSwitch1,Length=0.001,Units=km,switch=T !numEQ 50522
new line.CTR160453 bus1=BMT126587136.2,bus2=BMT126587374.2,Phases=1,LineCode=tieSwitch1,Length=0.001,Units=km,switch=T !numEQ 50523
new line.CTR160460 bus1=BMT149178273.2,bus2=BMT152286517.2,Phases=1,LineCode=tieSwitch1,Length=0.001,Units=km,switch=T !numEQ 50524
new line.CTR160467 bus1=BMT126587199.2,bus2=BMT126587297.2,Phases=1,LineCode=tieSwitch1,Length=0.001,Units=km,switch=T !numEQ 50525
new line.CTR160474 bus1=BMT126590132.3,bus2=BMT126590524.3,Phases=1,LineCode=tieSwitch1,Length=0.001,Units=km,switch=T !numEQ 50526
new line.CTR160481 bus1=BMT126590202.3,bus2=BMT126590209.3,Phases=1,LineCode=tieSwitch1,Length=0.001,Units=km,switch=T !numEQ 50527
new line.CTR160488 bus1=BMT126587143.2,bus2=BMT159221842.2,Phases=1,LineCode=tieSwitch1,Length=0.001,Units=km,switch=T !numEQ 50528
new line.CTR160495 bus1=BMT126592393.1,bus2=BMT126592638.1,Phases=1,LineCode=tieSwitch1,Length=0.001,Units=km,switch=T !numEQ 50529
new line.CTR160509 bus1=BMT126587640.1.2.3,bus2=BMT126588690.1.2.3,Phases=3,LineCode=tieSwitch,Length=0.001,Units=km,switch=T !numEQ 50531
new line.CTR160516 bus1=BMT126588263.3,bus2=BMT126588277.3,Phases=1,LineCode=tieSwitch1,Length=0.001,Units=km,switch=T !numEQ 50532
new line.CTR160523 bus1=BMT126587752.1.2.3,bus2=BMT154686953.1.2.3,Phases=3,LineCode=tieSwitch,Length=0.001,Units=km,switch=T !numEQ 50533
new line.CTR160530 bus1=BMT126587689.1,bus2=BMT126588550.1,Phases=1,LineCode=tieSwitch1,Length=0.001,Units=km,switch=T !numEQ 242820
new line.CTR160537 bus1=BMT126587696.1.2.3,bus2=BMT160171085.1.2.3,Phases=3,LineCode=tieSwitch,Length=0.001,Units=km,switch=T !numEQ 50535
new line.CTR1728 bus1=BMT126550974.3,bus2=BMT126551156.3,Phases=1,LineCode=tieSwitch1,Length=0.001,Units=km,switch=T !numEQ 50937
new line.CTR173305 bus1=BMT126592932.1.2.3,bus2=BMT126593170.1.2.3,Phases=3,LineCode=tieSwitch,Length=0.001,Units=km,switch=T !numEQ 132645
new line.CTR239231 bus1=BMT126549784.2,bus2=BMT126549812.2,Phases=1,LineCode=tieSwitch1,Length=0.001,Units=km,switch=T !numEQ 51002
new line.CTR142253 bus1=BMT126552941.1.2.3,bus2=BMT170631678.1.2.3,Phases=3,LineCode=tieSwitch,Length=0.001,Units=km,switch=T !numEQ 53982
new line.CTR142260 bus1=BMT165840527.1.2.3,bus2=BMT3798206.1.2.3,Phases=3,LineCode=tieSwitch,Length=0.001,Units=km,switch=T !numEQ 53983
open line.CTR142260 term=1
...