2024_89_CemigReconfigurationCases/1_SEsCemig/UNIT306/UNIT306Reguladores.dss
new transformer.RT1147-1 Phases=1,windings=2,buses=[BMT126542721.1.0 BMT126542728.1.0],conns=[LN LN],kvs=[7.967 7.967],kvas=[1500.000000000 1500.000000000],xhl=0.700000000,%loadloss=0.115000000,%noloadloss=0.0279
new RegControl.RC1147-1 transformer=RT1147-1,winding=2,PTphase=1,ptratio=66.4,band=3,vreg=123
new transformer.RT1147-2 Phases=1,windings=2,buses=[BMT126542721.2.0 BMT126542728.2.0],conns=[LN LN],kvs=[7.967 7.967],kvas=[1500.000000000 1500.000000000],xhl=0.700000000,%loadloss=0.115000000,%noloadloss=0.0279
new RegControl.RC1147-2 transformer=RT1147-2,winding=2,PTphase=1,ptratio=66.4,band=3,vreg=123
new transformer.RT1147-3 Phases=1,windings=2,buses=[BMT126542721.3.0 BMT126542728.3.0],conns=[LN LN],kvs=[7.967 7.967],kvas=[1500.000000000 1500.000000000],xhl=0.700000000,%loadloss=0.115000000,%noloadloss=0.0279
new RegControl.RC1147-3 transformer=RT1147-3,winding=2,PTphase=1,ptratio=66.4,band=3,vreg=123
new transformer.RT1308-1 Phases=1,windings=2,buses=[BMT150567642.1.0 BMT150567643.1.0],conns=[LN LN],kvs=[7.967 7.967],kvas=[750.000000000 750.000000000],xhl=0.500000000,%loadloss=0.124000000,%noloadloss=0.0393
new RegControl.RC1308-1 transformer=RT1308-1,winding=2,PTphase=1,ptratio=66.4,band=3,vreg=123
new transformer.RT1308-2 Phases=1,windings=2,buses=[BMT150567642.2.0 BMT150567643.2.0],conns=[LN LN],kvs=[7.967 7.967],kvas=[750.000000000 750.000000000],xhl=0.500000000,%loadloss=0.124000000,%noloadloss=0.0393
new RegControl.RC1308-2 transformer=RT1308-2,winding=2,PTphase=1,ptratio=66.4,band=3,vreg=123
new transformer.RT1308-3 Phases=1,windings=2,buses=[BMT150567642.3.0 BMT150567643.3.0],conns=[LN LN],kvs=[7.967 7.967],kvas=[750.000000000 750.000000000],xhl=0.500000000,%loadloss=0.124000000,%noloadloss=0.0393
new RegControl.RC1308-3 transformer=RT1308-3,winding=2,PTphase=1,ptratio=66.4,band=3,vreg=123
new transformer.RT1476-1 Phases=1,windings=2,buses=[BMT171864555.1.0 BMT171867465.1.0],conns=[LN LN],kvs=[7.967 7.967],kvas=[1500.000000000 1500.000000000],xhl=0.700000000,%loadloss=0.115000000,%noloadloss=0.0279
new RegControl.RC1476-1 transformer=RT1476-1,winding=2,PTphase=1,ptratio=66.4,band=3,vreg=123
new transformer.RT1476-2 Phases=1,windings=2,buses=[BMT171864555.2.0 BMT171867465.2.0],conns=[LN LN],kvs=[7.967 7.967],kvas=[1500.000000000 1500.000000000],xhl=0.700000000,%loadloss=0.115000000,%noloadloss=0.0279
new RegControl.RC1476-2 transformer=RT1476-2,winding=2,PTphase=1,ptratio=66.4,band=3,vreg=123
new transformer.RT1476-3 Phases=1,windings=2,buses=[BMT171864555.3.0 BMT171867465.3.0],conns=[LN LN],kvs=[7.967 7.967],kvas=[1500.000000000 1500.000000000],xhl=0.700000000,%loadloss=0.115000000,%noloadloss=0.0279
new RegControl.RC1476-3 transformer=RT1476-3,winding=2,PTphase=1,ptratio=66.4,band=3,vreg=123
new transformer.RT1483-1 Phases=1,windings=2,buses=[BMT126572597.1.0 BMT126572604.1.0],conns=[LN LN],kvs=[7.967 7.967],kvas=[1500.000000000 1500.000000000],xhl=0.700000000,%loadloss=0.115000000,%noloadloss=0.0279
new RegControl.RC1483-1 transformer=RT1483-1,winding=2,PTphase=1,ptratio=66.4,band=3,vreg=123
new transformer.RT1483-2 Phases=1,windings=2,buses=[BMT126572597.2.0 BMT126572604.2.0],conns=[LN LN],kvs=[7.967 7.967],kvas=[1500.000000000 1500.000000000],xhl=0.700000000,%loadloss=0.115000000,%noloadloss=0.0279
new RegControl.RC1483-2 transformer=RT1483-2,winding=2,PTphase=1,ptratio=66.4,band=3,vreg=123
new transformer.RT1483-3 Phases=1,windings=2,buses=[BMT126572597.3.0 BMT126572604.3.0],conns=[LN LN],kvs=[7.967 7.967],kvas=[1500.000000000 1500.000000000],xhl=0.700000000,%loadloss=0.115000000,%noloadloss=0.0279
new RegControl.RC1483-3 transformer=RT1483-3,winding=2,PTphase=1,ptratio=66.4,band=3,vreg=123
new transformer.RT1525-1 Phases=1,windings=2,buses=[BMT126543015.1.0 BMT171904173.1.0],conns=[LN LN],kvs=[7.967 7.967],kvas=[750.000000000 750.000000000],xhl=0.500000000,%loadloss=0.124000000,%noloadloss=0.0393
new RegControl.RC1525-1 transformer=RT1525-1,winding=2,PTphase=1,ptratio=66.4,band=3,vreg=123
new transformer.RT1525-2 Phases=1,windings=2,buses=[BMT126543015.2.0 BMT171904173.2.0],conns=[LN LN],kvs=[7.967 7.967],kvas=[750.000000000 750.000000000],xhl=0.500000000,%loadloss=0.124000000,%noloadloss=0.0393
new RegControl.RC1525-2 transformer=RT1525-2,winding=2,PTphase=1,ptratio=66.4,band=3,vreg=123
new transformer.RT1525-3 Phases=1,windings=2,buses=[BMT126543015.3.0 BMT171904173.3.0],conns=[LN LN],kvs=[7.967 7.967],kvas=[750.000000000 750.000000000],xhl=0.500000000,%loadloss=0.124000000,%noloadloss=0.0393
new RegControl.RC1525-3 transformer=RT1525-3,winding=2,PTphase=1,ptratio=66.4,band=3,vreg=123
new transformer.RT1630-1 Phases=1,windings=2,buses=[BMT126545549.1.0 BMT126545556.1.0],conns=[LN LN],kvs=[7.967 7.967],kvas=[750.000000000 750.000000000],xhl=0.500000000,%loadloss=0.124000000,%noloadloss=0.0393
new RegControl.RC1630-1 transformer=RT1630-1,winding=2,PTphase=1,ptratio=66.4,band=3,vreg=123
...